** sch_path: /foss/designs/sar_logic_test.sch
**.subckt sar_logic_test
X1 VDD 0 CLK clk_o clk_o_n OUT0 OUT1 OUT2 OUT3 OUT4 OUT5 OUT6 OUT7 OUT8 OUT9 OUT10 OUT11 OUT12 OUT13 OUT14 OUT15 OUTN OUTP VDD
+ sar_adc_logic
V3 VDD 0 3.3
V4 INP 0 sin(2 1 25MEG)
V6 INN 0 sin(2 1 25MEG 5n)
V7 nCLK 0 PULSE(0 3.3 0 50p 50p 2.5n 5n)
V8 CLK 0 PULSE(0 3.3 2.5n 50p 50p 10n 20n)
*  x1 -  realcomp  IS MISSING !!!!
**** begin user architecture code

.include /foss/pdks/gf180mcuD/libs.tech/ngspice/design.ngspice
.include /foss/pdks/gf180mcuD/libs.ref/gf180mcu_fd_sc_mcu7t5v0/spice/gf180mcu_fd_sc_mcu7t5v0.spice
.lib /foss/pdks/gf180mcuD/libs.tech/ngspice/sm141064.ngspice typical
.lib /foss/pdks/gf180mcuD/libs.tech/ngspice/smbb000149.ngspice typical


.subckt sar_adc_logic VDD VSS clk_i clk_o clk_o_n dac_ctrl[0] dac_ctrl[1] dac_ctrl[2]
+ dac_ctrl[3] dac_ctrl[4] dac_ctrl[5] dac_ctrl[6] dac_ctrl[7] dout[0] dout[1] dout[2]
+ dout[3] dout[4] dout[5] dout[6] dout[7] out_n out_p rst_n
XFILLER_22_177 VDD VDD VSS VSS gf180mcu_fd_sc_mcu7t5v0__fillcap_16
XFILLER_27_236 VDD VDD VSS VSS gf180mcu_fd_sc_mcu7t5v0__fillcap_4
XFILLER_8_170 VDD VDD VSS VSS gf180mcu_fd_sc_mcu7t5v0__fill_1
XTAP_TAPCELL_ROW_8_88 VDD VSS gf180mcu_fd_sc_mcu7t5v0__filltie
XFILLER_6_107 VDD VDD VSS VSS gf180mcu_fd_sc_mcu7t5v0__fillcap_16
XPHY_EDGE_ROW_20_Left_50 VDD VDD VSS VSS gf180mcu_fd_sc_mcu7t5v0__endcap
XFILLER_15_206 VDD VDD VSS VSS gf180mcu_fd_sc_mcu7t5v0__fillcap_4
XFILLER_15_228 VDD VDD VSS VSS gf180mcu_fd_sc_mcu7t5v0__fillcap_8
X_062_ _062_/A1 _105_/Q _062_/B _086_/D VDD VDD VSS VSS gf180mcu_fd_sc_mcu7t5v0__oai21_1
XFILLER_18_31 VDD VDD VSS VSS gf180mcu_fd_sc_mcu7t5v0__fillcap_4
X_045_ _088_/Q _058_/A1 VDD VDD VSS VSS gf180mcu_fd_sc_mcu7t5v0__clkinv_1
XFILLER_6_45 VDD VDD VSS VSS gf180mcu_fd_sc_mcu7t5v0__fill_1
XFILLER_15_10 VDD VDD VSS VSS gf180mcu_fd_sc_mcu7t5v0__fillcap_4
XFILLER_25_142 VDD VDD VSS VSS gf180mcu_fd_sc_mcu7t5v0__fillcap_64
Xoutput20 _099_/Q dout[7] VDD VDD VSS VSS gf180mcu_fd_sc_mcu7t5v0__dlyd_1
Xoutput7 _088_/Q dac_ctrl[2] VDD VDD VSS VSS gf180mcu_fd_sc_mcu7t5v0__dlyd_1
XFILLER_22_101 VDD VDD VSS VSS gf180mcu_fd_sc_mcu7t5v0__fillcap_4
XFILLER_3_57 VDD VDD VSS VSS gf180mcu_fd_sc_mcu7t5v0__fillcap_8
XFILLER_10_115 VDD VDD VSS VSS gf180mcu_fd_sc_mcu7t5v0__fillcap_4
XFILLER_12_77 VDD VDD VSS VSS gf180mcu_fd_sc_mcu7t5v0__fillcap_4
XTAP_TAPCELL_ROW_8_89 VDD VSS gf180mcu_fd_sc_mcu7t5v0__filltie
XFILLER_23_240 VDD VDD VSS VSS gf180mcu_fd_sc_mcu7t5v0__fill_1
XPHY_EDGE_ROW_21_Right_21 VDD VDD VSS VSS gf180mcu_fd_sc_mcu7t5v0__endcap
XPHY_EDGE_ROW_12_Right_12 VDD VDD VSS VSS gf180mcu_fd_sc_mcu7t5v0__endcap
XFILLER_0_36 VDD VDD VSS VSS gf180mcu_fd_sc_mcu7t5v0__fillcap_32
XFILLER_14_240 VDD VDD VSS VSS gf180mcu_fd_sc_mcu7t5v0__fill_1
XFILLER_2_199 VDD VDD VSS VSS gf180mcu_fd_sc_mcu7t5v0__fillcap_4
X_061_ _061_/A1 _105_/Q _106_/Q _062_/B VDD VDD VSS VSS gf180mcu_fd_sc_mcu7t5v0__aoi21_2
XFILLER_9_89 VDD VDD VSS VSS gf180mcu_fd_sc_mcu7t5v0__fill_1
XFILLER_9_67 VDD VDD VSS VSS gf180mcu_fd_sc_mcu7t5v0__fill_2
X_044_ _089_/Q _056_/A1 VDD VDD VSS VSS gf180mcu_fd_sc_mcu7t5v0__clkinv_1
XTAP_TAPCELL_ROW_5_79 VDD VSS gf180mcu_fd_sc_mcu7t5v0__filltie
XFILLER_7_236 VDD VDD VSS VSS gf180mcu_fd_sc_mcu7t5v0__fillcap_4
Xclkbuf_1_1__f_valid_clk_regs clkbuf_0_valid_clk_regs/Z _107_/CLK VDD VDD VSS VSS
+ gf180mcu_fd_sc_mcu7t5v0__clkbuf_16
XFILLER_28_173 VDD VDD VSS VSS gf180mcu_fd_sc_mcu7t5v0__fill_2
XPHY_EDGE_ROW_6_Right_6 VDD VDD VSS VSS gf180mcu_fd_sc_mcu7t5v0__endcap
Xoutput10 _085_/Q dac_ctrl[5] VDD VDD VSS VSS gf180mcu_fd_sc_mcu7t5v0__dlyd_1
Xoutput8 _087_/Q dac_ctrl[3] VDD VDD VSS VSS gf180mcu_fd_sc_mcu7t5v0__dlyd_1
XFILLER_3_69 VDD VDD VSS VSS gf180mcu_fd_sc_mcu7t5v0__fill_1
XFILLER_3_36 VDD VDD VSS VSS gf180mcu_fd_sc_mcu7t5v0__fillcap_8
XFILLER_12_34 VDD VDD VSS VSS gf180mcu_fd_sc_mcu7t5v0__fill_1
XFILLER_5_153 VDD VDD VSS VSS gf180mcu_fd_sc_mcu7t5v0__fill_2
XFILLER_5_142 VDD VDD VSS VSS gf180mcu_fd_sc_mcu7t5v0__fill_1
XFILLER_14_230 VDD VDD VSS VSS gf180mcu_fd_sc_mcu7t5v0__fillcap_8
X_060_ _060_/A1 _104_/Q _060_/B _087_/D VDD VDD VSS VSS gf180mcu_fd_sc_mcu7t5v0__oai21_1
XFILLER_29_2 VDD VDD VSS VSS gf180mcu_fd_sc_mcu7t5v0__fillcap_32
X_043_ _090_/Q _054_/A1 VDD VDD VSS VSS gf180mcu_fd_sc_mcu7t5v0__clkinv_1
XPHY_EDGE_ROW_8_Left_38 VDD VDD VSS VSS gf180mcu_fd_sc_mcu7t5v0__endcap
XFILLER_20_34 VDD VDD VSS VSS gf180mcu_fd_sc_mcu7t5v0__fill_1
Xhold32 _090_/Q _092_/D VDD VDD VSS VSS gf180mcu_fd_sc_mcu7t5v0__dlyc_1
XFILLER_3_240 VDD VDD VSS VSS gf180mcu_fd_sc_mcu7t5v0__fill_1
Xoutput11 _084_/Q dac_ctrl[6] VDD VDD VSS VSS gf180mcu_fd_sc_mcu7t5v0__dlyd_1
Xoutput9 _086_/Q dac_ctrl[4] VDD VDD VSS VSS gf180mcu_fd_sc_mcu7t5v0__dlyd_1
XFILLER_11_2 VDD VDD VSS VSS gf180mcu_fd_sc_mcu7t5v0__fillcap_16
XTAP_TAPCELL_ROW_15_109 VDD VSS gf180mcu_fd_sc_mcu7t5v0__filltie
Xdelaybuf_1_valid_clk delaybuf_1_valid_clk/I delaybuf_2_valid_clk/I VDD VDD VSS VSS
+ gf180mcu_fd_sc_mcu7t5v0__clkbuf_16
XFILLER_3_48 VDD VDD VSS VSS gf180mcu_fd_sc_mcu7t5v0__fill_2
XFILLER_27_206 VDD VDD VSS VSS gf180mcu_fd_sc_mcu7t5v0__fillcap_4
XFILLER_27_228 VDD VDD VSS VSS gf180mcu_fd_sc_mcu7t5v0__fillcap_8
XPHY_EDGE_ROW_24_Left_54 VDD VDD VSS VSS gf180mcu_fd_sc_mcu7t5v0__endcap
XFILLER_9_69 VDD VDD VSS VSS gf180mcu_fd_sc_mcu7t5v0__fill_1
XFILLER_9_14 VDD VDD VSS VSS gf180mcu_fd_sc_mcu7t5v0__fill_1
XFILLER_11_212 VDD VDD VSS VSS gf180mcu_fd_sc_mcu7t5v0__fillcap_16
XFILLER_18_23 VDD VDD VSS VSS gf180mcu_fd_sc_mcu7t5v0__fillcap_8
X_042_ _108_/Q _109_/D VDD VDD VSS VSS gf180mcu_fd_sc_mcu7t5v0__clkinv_1
XFILLER_20_57 VDD VDD VSS VSS gf180mcu_fd_sc_mcu7t5v0__fill_2
Xhold33 _085_/Q _097_/D VDD VDD VSS VSS gf180mcu_fd_sc_mcu7t5v0__dlyc_1
XFILLER_19_142 VDD VDD VSS VSS gf180mcu_fd_sc_mcu7t5v0__fillcap_16
XFILLER_19_175 VDD VDD VSS VSS gf180mcu_fd_sc_mcu7t5v0__fill_1
XFILLER_15_68 VDD VDD VSS VSS gf180mcu_fd_sc_mcu7t5v0__fill_2
Xoutput12 _091_/Q dac_ctrl[7] VDD VDD VSS VSS gf180mcu_fd_sc_mcu7t5v0__dlyd_1
XPHY_EDGE_ROW_11_Left_41 VDD VDD VSS VSS gf180mcu_fd_sc_mcu7t5v0__endcap
XFILLER_16_167 VDD VDD VSS VSS gf180mcu_fd_sc_mcu7t5v0__fillcap_8
XTAP_TAPCELL_ROW_18_118 VDD VSS gf180mcu_fd_sc_mcu7t5v0__filltie
XFILLER_26_34 VDD VDD VSS VSS gf180mcu_fd_sc_mcu7t5v0__fill_1
XFILLER_7_80 VDD VDD VSS VSS gf180mcu_fd_sc_mcu7t5v0__fillcap_4
XFILLER_13_137 VDD VDD VSS VSS gf180mcu_fd_sc_mcu7t5v0__fill_2
XTAP_TAPCELL_ROW_20_124 VDD VSS gf180mcu_fd_sc_mcu7t5v0__filltie
XFILLER_8_185 VDD VDD VSS VSS gf180mcu_fd_sc_mcu7t5v0__fillcap_4
XFILLER_12_69 VDD VDD VSS VSS gf180mcu_fd_sc_mcu7t5v0__fillcap_8
XFILLER_5_155 VDD VDD VSS VSS gf180mcu_fd_sc_mcu7t5v0__fill_1
XFILLER_23_68 VDD VDD VSS VSS gf180mcu_fd_sc_mcu7t5v0__fill_2
XFILLER_2_158 VDD VDD VSS VSS gf180mcu_fd_sc_mcu7t5v0__fillcap_16
XTAP_TAPCELL_ROW_0_60 VDD VSS gf180mcu_fd_sc_mcu7t5v0__filltie
XFILLER_18_79 VDD VDD VSS VSS gf180mcu_fd_sc_mcu7t5v0__fillcap_16
XTAP_TAPCELL_ROW_9_91 VDD VSS gf180mcu_fd_sc_mcu7t5v0__filltie
Xclkload0 _107_/CLK clkload0/ZN VDD VDD VSS VSS gf180mcu_fd_sc_mcu7t5v0__inv_2
XFILLER_7_228 VDD VDD VSS VSS gf180mcu_fd_sc_mcu7t5v0__fillcap_8
Xhold34 _086_/Q _096_/D VDD VDD VSS VSS gf180mcu_fd_sc_mcu7t5v0__dlyc_1
Xcomp_trigger_driver comp_trigger_nor/ZN clkbuf_0_net3/I VDD VDD VSS VSS gf180mcu_fd_sc_mcu7t5v0__buf_16
XFILLER_15_14 VDD VDD VSS VSS gf180mcu_fd_sc_mcu7t5v0__fill_2
Xoutput13 _092_/Q dout[0] VDD VDD VSS VSS gf180mcu_fd_sc_mcu7t5v0__dlyd_1
XTAP_TAPCELL_ROW_18_119 VDD VSS gf180mcu_fd_sc_mcu7t5v0__filltie
XPHY_EDGE_ROW_28_Right_28 VDD VDD VSS VSS gf180mcu_fd_sc_mcu7t5v0__endcap
XPHY_EDGE_ROW_19_Right_19 VDD VDD VSS VSS gf180mcu_fd_sc_mcu7t5v0__endcap
XTAP_TAPCELL_ROW_23_133 VDD VSS gf180mcu_fd_sc_mcu7t5v0__filltie
Xclkbuf_0_net3 clkbuf_0_net3/I clkbuf_0_net3/Z VDD VDD VSS VSS gf180mcu_fd_sc_mcu7t5v0__clkbuf_16
XFILLER_12_37 VDD VDD VSS VSS gf180mcu_fd_sc_mcu7t5v0__fillcap_32
XTAP_TAPCELL_ROW_20_125 VDD VSS gf180mcu_fd_sc_mcu7t5v0__filltie
Xclkbuf_0_valid_clk clkbuf_0_valid_clk/I clkbuf_0_valid_clk/Z VDD VDD VSS VSS gf180mcu_fd_sc_mcu7t5v0__clkbuf_16
XFILLER_5_101 VDD VDD VSS VSS gf180mcu_fd_sc_mcu7t5v0__fill_2
XFILLER_23_36 VDD VDD VSS VSS gf180mcu_fd_sc_mcu7t5v0__fillcap_32
XFILLER_13_80 VDD VDD VSS VSS gf180mcu_fd_sc_mcu7t5v0__fillcap_4
XTAP_TAPCELL_ROW_9_92 VDD VSS gf180mcu_fd_sc_mcu7t5v0__filltie
XTAP_TAPCELL_ROW_0_61 VDD VSS gf180mcu_fd_sc_mcu7t5v0__filltie
XFILLER_11_236 VDD VDD VSS VSS gf180mcu_fd_sc_mcu7t5v0__fillcap_4
XFILLER_27_2 VDD VDD VSS VSS gf180mcu_fd_sc_mcu7t5v0__fillcap_64
XFILLER_20_37 VDD VDD VSS VSS gf180mcu_fd_sc_mcu7t5v0__fillcap_16
XFILLER_20_59 VDD VDD VSS VSS gf180mcu_fd_sc_mcu7t5v0__fill_1
XFILLER_28_177 VDD VDD VSS VSS gf180mcu_fd_sc_mcu7t5v0__fillcap_64
Xhold35 _084_/Q _098_/D VDD VDD VSS VSS gf180mcu_fd_sc_mcu7t5v0__dlyc_1
XTAP_TAPCELL_ROW_6_82 VDD VSS gf180mcu_fd_sc_mcu7t5v0__filltie
XFILLER_25_136 VDD VDD VSS VSS gf180mcu_fd_sc_mcu7t5v0__fillcap_4
Xclkbuf_1_0__f_eoc clkbuf_0_eoc/Z comp_trigger_nor/A2 VDD VDD VSS VSS gf180mcu_fd_sc_mcu7t5v0__clkbuf_16
Xoutput14 _093_/Q dout[1] VDD VDD VSS VSS gf180mcu_fd_sc_mcu7t5v0__dlyd_1
XTAP_TAPCELL_ROW_26_142 VDD VSS gf180mcu_fd_sc_mcu7t5v0__filltie
XFILLER_7_60 VDD VDD VSS VSS gf180mcu_fd_sc_mcu7t5v0__fillcap_8
XFILLER_13_139 VDD VDD VSS VSS gf180mcu_fd_sc_mcu7t5v0__fill_1
XTAP_TAPCELL_ROW_23_134 VDD VSS gf180mcu_fd_sc_mcu7t5v0__filltie
XTAP_TAPCELL_ROW_20_126 VDD VSS gf180mcu_fd_sc_mcu7t5v0__filltie
XFILLER_23_212 VDD VDD VSS VSS gf180mcu_fd_sc_mcu7t5v0__fillcap_16
XFILLER_2_116 VDD VDD VSS VSS gf180mcu_fd_sc_mcu7t5v0__fill_2
XTAP_TAPCELL_ROW_9_93 VDD VSS gf180mcu_fd_sc_mcu7t5v0__filltie
XTAP_TAPCELL_ROW_0_62 VDD VSS gf180mcu_fd_sc_mcu7t5v0__filltie
XFILLER_18_37 VDD VDD VSS VSS gf180mcu_fd_sc_mcu7t5v0__fillcap_8
X_099_ _099_/D _050_/I _099_/CLK _099_/Q VDD VDD VSS VSS gf180mcu_fd_sc_mcu7t5v0__dffrnq_1
XPHY_EDGE_ROW_28_Left_58 VDD VDD VSS VSS gf180mcu_fd_sc_mcu7t5v0__endcap
XFILLER_28_101 VDD VDD VSS VSS gf180mcu_fd_sc_mcu7t5v0__fillcap_4
XFILLER_29_36 VDD VDD VSS VSS gf180mcu_fd_sc_mcu7t5v0__fillcap_32
Xhold36 _088_/Q _094_/D VDD VDD VSS VSS gf180mcu_fd_sc_mcu7t5v0__dlyc_1
XTAP_TAPCELL_ROW_29_151 VDD VSS gf180mcu_fd_sc_mcu7t5v0__filltie
XTAP_TAPCELL_ROW_6_83 VDD VSS gf180mcu_fd_sc_mcu7t5v0__filltie
Xoutput15 _094_/Q dout[2] VDD VDD VSS VSS gf180mcu_fd_sc_mcu7t5v0__dlyd_1
XTAP_TAPCELL_ROW_26_143 VDD VSS gf180mcu_fd_sc_mcu7t5v0__filltie
XPHY_EDGE_ROW_1_Right_1 VDD VDD VSS VSS gf180mcu_fd_sc_mcu7t5v0__endcap
XFILLER_22_107 VDD VDD VSS VSS gf180mcu_fd_sc_mcu7t5v0__fillcap_64
XPHY_EDGE_ROW_15_Left_45 VDD VDD VSS VSS gf180mcu_fd_sc_mcu7t5v0__endcap
XFILLER_7_72 VDD VDD VSS VSS gf180mcu_fd_sc_mcu7t5v0__fillcap_8
XFILLER_26_37 VDD VDD VSS VSS gf180mcu_fd_sc_mcu7t5v0__fillcap_64
XTAP_TAPCELL_ROW_23_135 VDD VSS gf180mcu_fd_sc_mcu7t5v0__filltie
XFILLER_29_240 VDD VDD VSS VSS gf180mcu_fd_sc_mcu7t5v0__fill_1
XTAP_TAPCELL_ROW_3_73 VDD VSS gf180mcu_fd_sc_mcu7t5v0__filltie
XTAP_TAPCELL_ROW_0_63 VDD VSS gf180mcu_fd_sc_mcu7t5v0__filltie
XFILLER_18_16 VDD VDD VSS VSS gf180mcu_fd_sc_mcu7t5v0__fill_2
X_098_ _098_/D _050_/I _099_/CLK _098_/Q VDD VDD VSS VSS gf180mcu_fd_sc_mcu7t5v0__dffrnq_1
XPHY_EDGE_ROW_3_Left_33 VDD VDD VSS VSS gf180mcu_fd_sc_mcu7t5v0__endcap
XFILLER_28_157 VDD VDD VSS VSS gf180mcu_fd_sc_mcu7t5v0__fillcap_16
Xhold37 _089_/Q _093_/D VDD VDD VSS VSS gf180mcu_fd_sc_mcu7t5v0__dlyc_1
XTAP_TAPCELL_ROW_10_94 VDD VSS gf180mcu_fd_sc_mcu7t5v0__filltie
XFILLER_3_212 VDD VDD VSS VSS gf180mcu_fd_sc_mcu7t5v0__fillcap_16
XFILLER_3_201 VDD VDD VSS VSS gf180mcu_fd_sc_mcu7t5v0__fillcap_8
XFILLER_19_124 VDD VDD VSS VSS gf180mcu_fd_sc_mcu7t5v0__fillcap_16
XTAP_TAPCELL_ROW_6_84 VDD VSS gf180mcu_fd_sc_mcu7t5v0__filltie
XTAP_TAPCELL_ROW_29_152 VDD VSS gf180mcu_fd_sc_mcu7t5v0__filltie
Xoutput16 _095_/Q dout[3] VDD VDD VSS VSS gf180mcu_fd_sc_mcu7t5v0__dlyd_1
XTAP_TAPCELL_ROW_26_144 VDD VSS gf180mcu_fd_sc_mcu7t5v0__filltie
XFILLER_24_171 VDD VDD VSS VSS gf180mcu_fd_sc_mcu7t5v0__fillcap_4
XFILLER_24_193 VDD VDD VSS VSS gf180mcu_fd_sc_mcu7t5v0__fillcap_8
XFILLER_21_174 VDD VDD VSS VSS gf180mcu_fd_sc_mcu7t5v0__fill_2
XPHY_EDGE_ROW_24_Right_24 VDD VDD VSS VSS gf180mcu_fd_sc_mcu7t5v0__endcap
XPHY_EDGE_ROW_15_Right_15 VDD VDD VSS VSS gf180mcu_fd_sc_mcu7t5v0__endcap
XFILLER_7_84 VDD VDD VSS VSS gf180mcu_fd_sc_mcu7t5v0__fill_2
XTAP_TAPCELL_ROW_3_74 VDD VSS gf180mcu_fd_sc_mcu7t5v0__filltie
XFILLER_4_181 VDD VDD VSS VSS gf180mcu_fd_sc_mcu7t5v0__fill_1
XFILLER_23_236 VDD VDD VSS VSS gf180mcu_fd_sc_mcu7t5v0__fillcap_4
XFILLER_2_107 VDD VDD VSS VSS gf180mcu_fd_sc_mcu7t5v0__fill_1
XFILLER_13_72 VDD VDD VSS VSS gf180mcu_fd_sc_mcu7t5v0__fillcap_8
XTAP_TAPCELL_ROW_0_64 VDD VSS gf180mcu_fd_sc_mcu7t5v0__filltie
XFILLER_11_228 VDD VDD VSS VSS gf180mcu_fd_sc_mcu7t5v0__fillcap_8
XFILLER_9_240 VDD VDD VSS VSS gf180mcu_fd_sc_mcu7t5v0__fill_1
X_097_ _097_/D _050_/I _099_/CLK _097_/Q VDD VDD VSS VSS gf180mcu_fd_sc_mcu7t5v0__dffrnq_1
Xhold38 _087_/Q _095_/D VDD VDD VSS VSS gf180mcu_fd_sc_mcu7t5v0__dlyc_1
XTAP_TAPCELL_ROW_10_95 VDD VSS gf180mcu_fd_sc_mcu7t5v0__filltie
XFILLER_19_158 VDD VDD VSS VSS gf180mcu_fd_sc_mcu7t5v0__fill_2
XTAP_TAPCELL_ROW_29_153 VDD VSS gf180mcu_fd_sc_mcu7t5v0__filltie
XFILLER_25_2 VDD VDD VSS VSS gf180mcu_fd_sc_mcu7t5v0__fillcap_64
Xoutput17 _096_/Q dout[4] VDD VDD VSS VSS gf180mcu_fd_sc_mcu7t5v0__dlyd_1
XFILLER_21_72 VDD VDD VSS VSS gf180mcu_fd_sc_mcu7t5v0__fillcap_64
XFILLER_21_142 VDD VDD VSS VSS gf180mcu_fd_sc_mcu7t5v0__fillcap_32
XTAP_TAPCELL_ROW_3_75 VDD VSS gf180mcu_fd_sc_mcu7t5v0__filltie
XFILLER_8_113 VDD VDD VSS VSS gf180mcu_fd_sc_mcu7t5v0__fill_1
XFILLER_26_201 VDD VDD VSS VSS gf180mcu_fd_sc_mcu7t5v0__fillcap_4
XFILLER_13_84 VDD VDD VSS VSS gf180mcu_fd_sc_mcu7t5v0__fill_2
XTAP_TAPCELL_ROW_0_65 VDD VSS gf180mcu_fd_sc_mcu7t5v0__filltie
XFILLER_18_18 VDD VDD VSS VSS gf180mcu_fd_sc_mcu7t5v0__fill_1
X_096_ _096_/D _050_/I _096_/CLK _096_/Q VDD VDD VSS VSS gf180mcu_fd_sc_mcu7t5v0__dffrnq_1
XFILLER_6_211 VDD VDD VSS VSS gf180mcu_fd_sc_mcu7t5v0__fillcap_16
Xhold39 _091_/Q _099_/D VDD VDD VSS VSS gf180mcu_fd_sc_mcu7t5v0__dlyc_1
XTAP_TAPCELL_ROW_10_96 VDD VSS gf180mcu_fd_sc_mcu7t5v0__filltie
XFILLER_10_41 VDD VDD VSS VSS gf180mcu_fd_sc_mcu7t5v0__fill_2
XFILLER_19_72 VDD VDD VSS VSS gf180mcu_fd_sc_mcu7t5v0__fillcap_16
XTAP_TAPCELL_ROW_29_154 VDD VSS gf180mcu_fd_sc_mcu7t5v0__filltie
XFILLER_3_236 VDD VDD VSS VSS gf180mcu_fd_sc_mcu7t5v0__fillcap_4
XFILLER_0_206 VDD VDD VSS VSS gf180mcu_fd_sc_mcu7t5v0__fillcap_32
X_079_ _080_/A1 _080_/A2 _104_/RN VDD VDD VSS VSS gf180mcu_fd_sc_mcu7t5v0__nor2_1
Xoutput18 _097_/Q dout[5] VDD VDD VSS VSS gf180mcu_fd_sc_mcu7t5v0__dlyd_1
XFILLER_16_107 VDD VDD VSS VSS gf180mcu_fd_sc_mcu7t5v0__fillcap_8
XFILLER_7_86 VDD VDD VSS VSS gf180mcu_fd_sc_mcu7t5v0__fill_1
XPHY_EDGE_ROW_5_Right_5 VDD VDD VSS VSS gf180mcu_fd_sc_mcu7t5v0__endcap
XPHY_EDGE_ROW_19_Left_49 VDD VDD VSS VSS gf180mcu_fd_sc_mcu7t5v0__endcap
XFILLER_27_72 VDD VDD VSS VSS gf180mcu_fd_sc_mcu7t5v0__fillcap_64
XFILLER_5_139 VDD VDD VSS VSS gf180mcu_fd_sc_mcu7t5v0__fill_1
XFILLER_14_238 VDD VDD VSS VSS gf180mcu_fd_sc_mcu7t5v0__fill_2
XTAP_TAPCELL_ROW_0_66 VDD VSS gf180mcu_fd_sc_mcu7t5v0__filltie
XFILLER_11_208 VDD VDD VSS VSS gf180mcu_fd_sc_mcu7t5v0__fill_2
X_095_ _095_/D _050_/I _096_/CLK _095_/Q VDD VDD VSS VSS gf180mcu_fd_sc_mcu7t5v0__dffrnq_1
XTAP_TAPCELL_ROW_29_155 VDD VSS gf180mcu_fd_sc_mcu7t5v0__filltie
XPHY_EDGE_ROW_7_Left_37 VDD VDD VSS VSS gf180mcu_fd_sc_mcu7t5v0__endcap
X_078_ _080_/A1 _080_/A2 _103_/RN VDD VDD VSS VSS gf180mcu_fd_sc_mcu7t5v0__nor2_1
Xoutput19 _098_/Q dout[6] VDD VDD VSS VSS gf180mcu_fd_sc_mcu7t5v0__dlyd_1
Xclkbuf_regs_2_eoc_clk _100_/Q clkbuf_0_eoc_regs/I VDD VDD VSS VSS gf180mcu_fd_sc_mcu7t5v0__clkbuf_16
XTAP_TAPCELL_ROW_14_106 VDD VSS gf180mcu_fd_sc_mcu7t5v0__filltie
XPHY_EDGE_ROW_20_Right_20 VDD VDD VSS VSS gf180mcu_fd_sc_mcu7t5v0__endcap
XPHY_EDGE_ROW_11_Right_11 VDD VDD VSS VSS gf180mcu_fd_sc_mcu7t5v0__endcap
XFILLER_23_206 VDD VDD VSS VSS gf180mcu_fd_sc_mcu7t5v0__fillcap_4
XFILLER_23_228 VDD VDD VSS VSS gf180mcu_fd_sc_mcu7t5v0__fillcap_8
XFILLER_13_86 VDD VDD VSS VSS gf180mcu_fd_sc_mcu7t5v0__fill_1
XFILLER_8_2 VDD VDD VSS VSS gf180mcu_fd_sc_mcu7t5v0__fillcap_32
X_094_ _094_/D _050_/I _096_/CLK _094_/Q VDD VDD VSS VSS gf180mcu_fd_sc_mcu7t5v0__dffrnq_1
XFILLER_6_235 VDD VDD VSS VSS gf180mcu_fd_sc_mcu7t5v0__fillcap_4
XPHY_EDGE_ROW_23_Left_53 VDD VDD VSS VSS gf180mcu_fd_sc_mcu7t5v0__endcap
XTAP_TAPCELL_ROW_29_156 VDD VSS gf180mcu_fd_sc_mcu7t5v0__filltie
X_077_ wire24/I _077_/A2 _102_/RN VDD VDD VSS VSS gf180mcu_fd_sc_mcu7t5v0__nor2_1
Xdelaybuf_0_valid_clk valid_clk_xor/Z delaybuf_1_valid_clk/I VDD VDD VSS VSS gf180mcu_fd_sc_mcu7t5v0__clkbuf_16
XFILLER_15_142 VDD VDD VSS VSS gf180mcu_fd_sc_mcu7t5v0__fillcap_4
XTAP_TAPCELL_ROW_17_115 VDD VSS gf180mcu_fd_sc_mcu7t5v0__filltie
XFILLER_7_22 VDD VDD VSS VSS gf180mcu_fd_sc_mcu7t5v0__fill_2
XPHY_EDGE_ROW_10_Left_40 VDD VDD VSS VSS gf180mcu_fd_sc_mcu7t5v0__endcap
XFILLER_12_123 VDD VDD VSS VSS gf180mcu_fd_sc_mcu7t5v0__fill_2
XTAP_TAPCELL_ROW_14_107 VDD VSS gf180mcu_fd_sc_mcu7t5v0__filltie
XFILLER_17_237 VDD VDD VSS VSS gf180mcu_fd_sc_mcu7t5v0__fillcap_4
XFILLER_4_34 VDD VDD VSS VSS gf180mcu_fd_sc_mcu7t5v0__fill_1
XFILLER_4_130 VDD VDD VSS VSS gf180mcu_fd_sc_mcu7t5v0__fill_1
XFILLER_13_240 VDD VDD VSS VSS gf180mcu_fd_sc_mcu7t5v0__fill_1
X_093_ _093_/D _050_/I _096_/CLK _093_/Q VDD VDD VSS VSS gf180mcu_fd_sc_mcu7t5v0__dffrnq_1
XFILLER_28_107 VDD VDD VSS VSS gf180mcu_fd_sc_mcu7t5v0__fillcap_16
Xinput1 out_n input1/Z VDD VDD VSS VSS gf180mcu_fd_sc_mcu7t5v0__dlyd_1
XFILLER_3_228 VDD VDD VSS VSS gf180mcu_fd_sc_mcu7t5v0__fillcap_8
X_076_ wire24/Z _077_/A2 _101_/RN VDD VDD VSS VSS gf180mcu_fd_sc_mcu7t5v0__nor2_1
Xclkbuf_0_valid_clk_regs clkbuf_regs_0_valid_clk/Z clkbuf_0_valid_clk_regs/Z VDD VDD
+ VSS VSS gf180mcu_fd_sc_mcu7t5v0__clkbuf_16
XTAP_TAPCELL_ROW_29_157 VDD VSS gf180mcu_fd_sc_mcu7t5v0__filltie
XFILLER_15_198 VDD VDD VSS VSS gf180mcu_fd_sc_mcu7t5v0__fillcap_8
XTAP_TAPCELL_ROW_17_116 VDD VSS gf180mcu_fd_sc_mcu7t5v0__filltie
XFILLER_16_2 VDD VDD VSS VSS gf180mcu_fd_sc_mcu7t5v0__fillcap_8
X_059_ _061_/A1 _104_/Q _105_/Q _060_/B VDD VDD VSS VSS gf180mcu_fd_sc_mcu7t5v0__aoi21_2
XFILLER_16_10 VDD VDD VSS VSS gf180mcu_fd_sc_mcu7t5v0__fill_1
XTAP_TAPCELL_ROW_22_130 VDD VSS gf180mcu_fd_sc_mcu7t5v0__filltie
XTAP_TAPCELL_ROW_14_108 VDD VSS gf180mcu_fd_sc_mcu7t5v0__filltie
XPHY_EDGE_ROW_9_Right_9 VDD VDD VSS VSS gf180mcu_fd_sc_mcu7t5v0__endcap
XFILLER_26_205 VDD VDD VSS VSS gf180mcu_fd_sc_mcu7t5v0__fill_2
X_092_ _092_/D _050_/I _099_/CLK _092_/Q VDD VDD VSS VSS gf180mcu_fd_sc_mcu7t5v0__dffrnq_1
Xclkbuf_0_eoc_regs clkbuf_0_eoc_regs/I clkbuf_0_eoc_regs/Z VDD VDD VSS VSS gf180mcu_fd_sc_mcu7t5v0__clkbuf_16
Xinput2 out_p input2/Z VDD VDD VSS VSS gf180mcu_fd_sc_mcu7t5v0__buf_1
X_075_ wire24/Z _077_/A2 _100_/RN VDD VDD VSS VSS gf180mcu_fd_sc_mcu7t5v0__nor2_1
XFILLER_18_185 VDD VDD VSS VSS gf180mcu_fd_sc_mcu7t5v0__fillcap_4
XFILLER_24_177 VDD VDD VSS VSS gf180mcu_fd_sc_mcu7t5v0__fillcap_16
XTAP_TAPCELL_ROW_17_117 VDD VSS gf180mcu_fd_sc_mcu7t5v0__filltie
X_058_ _058_/A1 _103_/Q _058_/B _088_/D VDD VDD VSS VSS gf180mcu_fd_sc_mcu7t5v0__oai21_1
XFILLER_7_68 VDD VDD VSS VSS gf180mcu_fd_sc_mcu7t5v0__fill_2
XFILLER_21_136 VDD VDD VSS VSS gf180mcu_fd_sc_mcu7t5v0__fillcap_4
XTAP_TAPCELL_ROW_22_131 VDD VSS gf180mcu_fd_sc_mcu7t5v0__filltie
X_091_ _091_/D _074_/ZN _108_/CLK _091_/Q VDD VDD VSS VSS gf180mcu_fd_sc_mcu7t5v0__dffsnq_1
XFILLER_6_227 VDD VDD VSS VSS gf180mcu_fd_sc_mcu7t5v0__fillcap_8
XFILLER_6_2 VDD VDD VSS VSS gf180mcu_fd_sc_mcu7t5v0__fillcap_8
XPHY_EDGE_ROW_27_Right_27 VDD VDD VSS VSS gf180mcu_fd_sc_mcu7t5v0__endcap
XPHY_EDGE_ROW_18_Right_18 VDD VDD VSS VSS gf180mcu_fd_sc_mcu7t5v0__endcap
XFILLER_19_88 VDD VDD VSS VSS gf180mcu_fd_sc_mcu7t5v0__fill_2
XFILLER_27_142 VDD VDD VSS VSS gf180mcu_fd_sc_mcu7t5v0__fillcap_64
X_074_ _109_/Q _083_/A2 _074_/ZN VDD VDD VSS VSS gf180mcu_fd_sc_mcu7t5v0__nor2_1
XPHY_EDGE_ROW_27_Left_57 VDD VDD VSS VSS gf180mcu_fd_sc_mcu7t5v0__endcap
XFILLER_24_101 VDD VDD VSS VSS gf180mcu_fd_sc_mcu7t5v0__fillcap_4
Xclkbuf_1_0__f_valid_clk clkbuf_0_valid_clk/Z comp_trigger_nor/A1 VDD VDD VSS VSS
+ gf180mcu_fd_sc_mcu7t5v0__clkbuf_16
Xmax_cap21 _077_/A2 _083_/A2 VDD VDD VSS VSS gf180mcu_fd_sc_mcu7t5v0__buf_2
X_057_ input2/Z _103_/Q _104_/Q _058_/B VDD VDD VSS VSS gf180mcu_fd_sc_mcu7t5v0__aoi21_1
XTAP_TAPCELL_ROW_25_140 VDD VSS gf180mcu_fd_sc_mcu7t5v0__filltie
XTAP_TAPCELL_ROW_22_132 VDD VSS gf180mcu_fd_sc_mcu7t5v0__filltie
XPHY_EDGE_ROW_0_Right_0 VDD VDD VSS VSS gf180mcu_fd_sc_mcu7t5v0__endcap
XFILLER_11_192 VDD VDD VSS VSS gf180mcu_fd_sc_mcu7t5v0__fillcap_16
X_109_ _109_/D _050_/I clk_i _109_/Q VDD VDD VSS VSS gf180mcu_fd_sc_mcu7t5v0__dffrnq_1
XPHY_EDGE_ROW_14_Left_44 VDD VDD VSS VSS gf180mcu_fd_sc_mcu7t5v0__endcap
XFILLER_7_152 VDD VDD VSS VSS gf180mcu_fd_sc_mcu7t5v0__fill_2
XFILLER_25_240 VDD VDD VSS VSS gf180mcu_fd_sc_mcu7t5v0__fill_1
XFILLER_27_66 VDD VDD VSS VSS gf180mcu_fd_sc_mcu7t5v0__fillcap_4
XFILLER_4_177 VDD VDD VSS VSS gf180mcu_fd_sc_mcu7t5v0__fillcap_4
XFILLER_13_68 VDD VDD VSS VSS gf180mcu_fd_sc_mcu7t5v0__fill_2
XFILLER_13_232 VDD VDD VSS VSS gf180mcu_fd_sc_mcu7t5v0__fillcap_8
XFILLER_10_235 VDD VDD VSS VSS gf180mcu_fd_sc_mcu7t5v0__fillcap_4
XFILLER_24_34 VDD VDD VSS VSS gf180mcu_fd_sc_mcu7t5v0__fill_1
X_090_ _090_/D _090_/RN _107_/CLK _090_/Q VDD VDD VSS VSS gf180mcu_fd_sc_mcu7t5v0__dffrnq_2
XFILLER_6_239 VDD VDD VSS VSS gf180mcu_fd_sc_mcu7t5v0__fill_2
XFILLER_3_209 VDD VDD VSS VSS gf180mcu_fd_sc_mcu7t5v0__fill_1
XFILLER_18_8 VDD VDD VSS VSS gf180mcu_fd_sc_mcu7t5v0__fillcap_8
X_073_ wire24/Z _077_/A2 _090_/RN VDD VDD VSS VSS gf180mcu_fd_sc_mcu7t5v0__nor2_1
XPHY_EDGE_ROW_2_Left_32 VDD VDD VSS VSS gf180mcu_fd_sc_mcu7t5v0__endcap
XFILLER_21_68 VDD VDD VSS VSS gf180mcu_fd_sc_mcu7t5v0__fill_2
XFILLER_15_146 VDD VDD VSS VSS gf180mcu_fd_sc_mcu7t5v0__fill_2
Xmax_cap22 _077_/A2 _080_/A2 VDD VDD VSS VSS gf180mcu_fd_sc_mcu7t5v0__buf_2
X_056_ _056_/A1 _102_/Q _056_/B _089_/D VDD VDD VSS VSS gf180mcu_fd_sc_mcu7t5v0__oai21_1
XTAP_TAPCELL_ROW_25_141 VDD VSS gf180mcu_fd_sc_mcu7t5v0__filltie
XFILLER_20_171 VDD VDD VSS VSS gf180mcu_fd_sc_mcu7t5v0__fillcap_4
XFILLER_14_2 VDD VDD VSS VSS gf180mcu_fd_sc_mcu7t5v0__fillcap_32
X_108_ _108_/D _083_/ZN _108_/CLK _108_/Q VDD VDD VSS VSS gf180mcu_fd_sc_mcu7t5v0__dffsnq_2
XFILLER_7_142 VDD VDD VSS VSS gf180mcu_fd_sc_mcu7t5v0__fill_2
XFILLER_17_208 VDD VDD VSS VSS gf180mcu_fd_sc_mcu7t5v0__fill_2
XFILLER_13_36 VDD VDD VSS VSS gf180mcu_fd_sc_mcu7t5v0__fillcap_32
XFILLER_5_240 VDD VDD VSS VSS gf180mcu_fd_sc_mcu7t5v0__fill_1
XFILLER_10_37 VDD VDD VSS VSS gf180mcu_fd_sc_mcu7t5v0__fillcap_4
XFILLER_19_68 VDD VDD VSS VSS gf180mcu_fd_sc_mcu7t5v0__fill_2
XFILLER_18_177 VDD VDD VSS VSS gf180mcu_fd_sc_mcu7t5v0__fillcap_8
X_072_ wire24/I _077_/A2 _089_/RN VDD VDD VSS VSS gf180mcu_fd_sc_mcu7t5v0__nor2_1
XTAP_TAPCELL_ROW_28_150 VDD VSS gf180mcu_fd_sc_mcu7t5v0__filltie
XFILLER_15_125 VDD VDD VSS VSS gf180mcu_fd_sc_mcu7t5v0__fill_2
XFILLER_21_36 VDD VDD VSS VSS gf180mcu_fd_sc_mcu7t5v0__fillcap_32
Xmax_cap23 _109_/Q _080_/A1 VDD VDD VSS VSS gf180mcu_fd_sc_mcu7t5v0__buf_2
X_055_ _065_/A1 _102_/Q _103_/Q _056_/B VDD VDD VSS VSS gf180mcu_fd_sc_mcu7t5v0__aoi21_1
XFILLER_16_69 VDD VDD VSS VSS gf180mcu_fd_sc_mcu7t5v0__fill_2
XFILLER_29_206 VDD VDD VSS VSS gf180mcu_fd_sc_mcu7t5v0__fillcap_32
X_107_ _108_/Q _107_/RN _107_/CLK _107_/Q VDD VDD VSS VSS gf180mcu_fd_sc_mcu7t5v0__dffrnq_2
XFILLER_22_201 VDD VDD VSS VSS gf180mcu_fd_sc_mcu7t5v0__fillcap_4
XFILLER_9_238 VDD VDD VSS VSS gf180mcu_fd_sc_mcu7t5v0__fill_2
XFILLER_19_36 VDD VDD VSS VSS gf180mcu_fd_sc_mcu7t5v0__fillcap_32
X_071_ _080_/A1 _080_/A2 _088_/RN VDD VDD VSS VSS gf180mcu_fd_sc_mcu7t5v0__nor2_1
XPHY_EDGE_ROW_23_Right_23 VDD VDD VSS VSS gf180mcu_fd_sc_mcu7t5v0__endcap
XPHY_EDGE_ROW_14_Right_14 VDD VDD VSS VSS gf180mcu_fd_sc_mcu7t5v0__endcap
XFILLER_4_2 VDD VDD VSS VSS gf180mcu_fd_sc_mcu7t5v0__fillcap_32
XFILLER_18_189 VDD VDD VSS VSS gf180mcu_fd_sc_mcu7t5v0__fill_2
X_054_ _054_/A1 _101_/Q _054_/B _090_/D VDD VDD VSS VSS gf180mcu_fd_sc_mcu7t5v0__oai21_1
XFILLER_12_107 VDD VDD VSS VSS gf180mcu_fd_sc_mcu7t5v0__fillcap_16
XFILLER_16_37 VDD VDD VSS VSS gf180mcu_fd_sc_mcu7t5v0__fillcap_32
X_106_ _107_/Q _106_/RN _107_/CLK _106_/Q VDD VDD VSS VSS gf180mcu_fd_sc_mcu7t5v0__dffrnq_2
XFILLER_19_240 VDD VDD VSS VSS gf180mcu_fd_sc_mcu7t5v0__fill_1
XPHY_EDGE_ROW_4_Right_4 VDD VDD VSS VSS gf180mcu_fd_sc_mcu7t5v0__endcap
XFILLER_17_80 VDD VDD VSS VSS gf180mcu_fd_sc_mcu7t5v0__fillcap_4
XPHY_EDGE_ROW_18_Left_48 VDD VDD VSS VSS gf180mcu_fd_sc_mcu7t5v0__endcap
XFILLER_0_172 VDD VDD VSS VSS gf180mcu_fd_sc_mcu7t5v0__fillcap_32
XFILLER_10_227 VDD VDD VSS VSS gf180mcu_fd_sc_mcu7t5v0__fillcap_8
XFILLER_24_37 VDD VDD VSS VSS gf180mcu_fd_sc_mcu7t5v0__fillcap_64
XFILLER_14_81 VDD VDD VSS VSS gf180mcu_fd_sc_mcu7t5v0__fill_2
X_070_ _080_/A1 _080_/A2 _087_/RN VDD VDD VSS VSS gf180mcu_fd_sc_mcu7t5v0__nor2_1
Xmax_cap25 _109_/Q wire24/I VDD VDD VSS VSS gf180mcu_fd_sc_mcu7t5v0__buf_2
XPHY_EDGE_ROW_6_Left_36 VDD VDD VSS VSS gf180mcu_fd_sc_mcu7t5v0__endcap
XFILLER_11_60 VDD VDD VSS VSS gf180mcu_fd_sc_mcu7t5v0__fillcap_8
X_053_ _065_/A1 _101_/Q _102_/Q _054_/B VDD VDD VSS VSS gf180mcu_fd_sc_mcu7t5v0__aoi21_2
XFILLER_7_18 VDD VDD VSS VSS gf180mcu_fd_sc_mcu7t5v0__fillcap_4
XFILLER_20_185 VDD VDD VSS VSS gf180mcu_fd_sc_mcu7t5v0__fillcap_4
X_105_ _106_/Q _105_/RN _108_/CLK _105_/Q VDD VDD VSS VSS gf180mcu_fd_sc_mcu7t5v0__dffrnq_2
XTAP_TAPCELL_ROW_13_103 VDD VSS gf180mcu_fd_sc_mcu7t5v0__filltie
XFILLER_8_61 VDD VDD VSS VSS gf180mcu_fd_sc_mcu7t5v0__fillcap_4
XFILLER_12_2 VDD VDD VSS VSS gf180mcu_fd_sc_mcu7t5v0__fillcap_32
XFILLER_0_140 VDD VDD VSS VSS gf180mcu_fd_sc_mcu7t5v0__fill_1
Xclkbuf_0_net3_regs clkbuf_0_net3_regs/I clkbuf_0_net3_regs/Z VDD VDD VSS VSS gf180mcu_fd_sc_mcu7t5v0__clkbuf_16
XFILLER_10_239 VDD VDD VSS VSS gf180mcu_fd_sc_mcu7t5v0__fill_2
XFILLER_27_136 VDD VDD VSS VSS gf180mcu_fd_sc_mcu7t5v0__fillcap_4
XFILLER_18_103 VDD VDD VSS VSS gf180mcu_fd_sc_mcu7t5v0__fill_2
XFILLER_18_147 VDD VDD VSS VSS gf180mcu_fd_sc_mcu7t5v0__fill_2
XPHY_EDGE_ROW_22_Left_52 VDD VDD VSS VSS gf180mcu_fd_sc_mcu7t5v0__endcap
XFILLER_11_72 VDD VDD VSS VSS gf180mcu_fd_sc_mcu7t5v0__fillcap_4
XFILLER_15_117 VDD VDD VSS VSS gf180mcu_fd_sc_mcu7t5v0__fillcap_8
Xmax_cap26 _061_/A1 _065_/A1 VDD VDD VSS VSS gf180mcu_fd_sc_mcu7t5v0__buf_2
X_052_ _091_/Q _061_/A1 _108_/Q _091_/D VDD VDD VSS VSS gf180mcu_fd_sc_mcu7t5v0__mux2_2
XTAP_TAPCELL_ROW_16_112 VDD VSS gf180mcu_fd_sc_mcu7t5v0__filltie
XTAP_TAPCELL_ROW_13_104 VDD VSS gf180mcu_fd_sc_mcu7t5v0__filltie
X_104_ _105_/Q _104_/RN _108_/CLK _104_/Q VDD VDD VSS VSS gf180mcu_fd_sc_mcu7t5v0__dffrnq_2
XFILLER_25_212 VDD VDD VSS VSS gf180mcu_fd_sc_mcu7t5v0__fillcap_16
XFILLER_13_204 VDD VDD VSS VSS gf180mcu_fd_sc_mcu7t5v0__fillcap_4
Xclkbuf_regs_1_valid_clk clkbuf_0_net3/I clkbuf_0_net3_regs/I VDD VDD VSS VSS gf180mcu_fd_sc_mcu7t5v0__clkbuf_16
Xclkbuf_1_1__f_eoc_regs clkbuf_0_eoc_regs/Z _099_/CLK VDD VDD VSS VSS gf180mcu_fd_sc_mcu7t5v0__clkbuf_16
XFILLER_2_203 VDD VDD VSS VSS gf180mcu_fd_sc_mcu7t5v0__fill_2
XFILLER_24_107 VDD VDD VSS VSS gf180mcu_fd_sc_mcu7t5v0__fillcap_64
XTAP_TAPCELL_ROW_19_121 VDD VSS gf180mcu_fd_sc_mcu7t5v0__filltie
XPHY_EDGE_ROW_10_Right_10 VDD VDD VSS VSS gf180mcu_fd_sc_mcu7t5v0__endcap
XFILLER_2_2 VDD VDD VSS VSS gf180mcu_fd_sc_mcu7t5v0__fillcap_32
Xmax_cap27 input2/Z _061_/A1 VDD VDD VSS VSS gf180mcu_fd_sc_mcu7t5v0__buf_2
XTAP_TAPCELL_ROW_7_85 VDD VSS gf180mcu_fd_sc_mcu7t5v0__filltie
XTAP_TAPCELL_ROW_16_113 VDD VSS gf180mcu_fd_sc_mcu7t5v0__filltie
X_103_ _104_/Q _103_/RN _108_/CLK _103_/Q VDD VDD VSS VSS gf180mcu_fd_sc_mcu7t5v0__dffrnq_2
XTAP_TAPCELL_ROW_13_105 VDD VSS gf180mcu_fd_sc_mcu7t5v0__filltie
XFILLER_17_72 VDD VDD VSS VSS gf180mcu_fd_sc_mcu7t5v0__fillcap_8
XFILLER_4_128 VDD VDD VSS VSS gf180mcu_fd_sc_mcu7t5v0__fill_2
Xclkbuf_1_0__f_eoc_regs clkbuf_0_eoc_regs/Z _096_/CLK VDD VDD VSS VSS gf180mcu_fd_sc_mcu7t5v0__clkbuf_16
XPHY_EDGE_ROW_8_Right_8 VDD VDD VSS VSS gf180mcu_fd_sc_mcu7t5v0__endcap
XFILLER_13_216 VDD VDD VSS VSS gf180mcu_fd_sc_mcu7t5v0__fillcap_16
Xvalid_clk_xor _061_/A1 input1/Z valid_clk_xor/Z VDD VDD VSS VSS gf180mcu_fd_sc_mcu7t5v0__xor2_4
XFILLER_5_97 VDD VDD VSS VSS gf180mcu_fd_sc_mcu7t5v0__fillcap_4
XFILLER_14_73 VDD VDD VSS VSS gf180mcu_fd_sc_mcu7t5v0__fillcap_8
XFILLER_5_212 VDD VDD VSS VSS gf180mcu_fd_sc_mcu7t5v0__fillcap_16
X_051__29 _051__29/I output4/I VDD VDD VSS VSS gf180mcu_fd_sc_mcu7t5v0__clkinv_1
XFILLER_25_72 VDD VDD VSS VSS gf180mcu_fd_sc_mcu7t5v0__fillcap_64
XFILLER_26_171 VDD VDD VSS VSS gf180mcu_fd_sc_mcu7t5v0__fillcap_4
XFILLER_26_193 VDD VDD VSS VSS gf180mcu_fd_sc_mcu7t5v0__fillcap_8
Xclkbuf_1_0__f_net3 clkbuf_0_net3/Z output3/I VDD VDD VSS VSS gf180mcu_fd_sc_mcu7t5v0__clkbuf_16
XTAP_TAPCELL_ROW_19_122 VDD VSS gf180mcu_fd_sc_mcu7t5v0__filltie
X_050_ _050_/I _077_/A2 VDD VDD VSS VSS gf180mcu_fd_sc_mcu7t5v0__inv_1
XTAP_TAPCELL_ROW_7_86 VDD VSS gf180mcu_fd_sc_mcu7t5v0__filltie
XTAP_TAPCELL_ROW_16_114 VDD VSS gf180mcu_fd_sc_mcu7t5v0__filltie
XFILLER_20_177 VDD VDD VSS VSS gf180mcu_fd_sc_mcu7t5v0__fillcap_8
XFILLER_28_2 VDD VDD VSS VSS gf180mcu_fd_sc_mcu7t5v0__fillcap_32
X_102_ _103_/Q _102_/RN _108_/CLK _102_/Q VDD VDD VSS VSS gf180mcu_fd_sc_mcu7t5v0__dffrnq_2
XFILLER_7_137 VDD VDD VSS VSS gf180mcu_fd_sc_mcu7t5v0__fill_2
XFILLER_8_53 VDD VDD VSS VSS gf180mcu_fd_sc_mcu7t5v0__fillcap_8
XFILLER_17_84 VDD VDD VSS VSS gf180mcu_fd_sc_mcu7t5v0__fill_1
XFILLER_25_236 VDD VDD VSS VSS gf180mcu_fd_sc_mcu7t5v0__fillcap_4
XFILLER_22_239 VDD VDD VSS VSS gf180mcu_fd_sc_mcu7t5v0__fill_2
XTAP_TAPCELL_ROW_4_76 VDD VSS gf180mcu_fd_sc_mcu7t5v0__filltie
Xcomp_trigger_nor comp_trigger_nor/A1 comp_trigger_nor/A2 wire24/Z comp_trigger_nor/ZN
+ VDD VDD VSS VSS gf180mcu_fd_sc_mcu7t5v0__nor3_4
XFILLER_0_110 VDD VDD VSS VSS gf180mcu_fd_sc_mcu7t5v0__fill_1
XFILLER_10_2 VDD VDD VSS VSS gf180mcu_fd_sc_mcu7t5v0__fillcap_16
XFILLER_5_65 VDD VDD VSS VSS gf180mcu_fd_sc_mcu7t5v0__fillcap_4
XFILLER_18_139 VDD VDD VSS VSS gf180mcu_fd_sc_mcu7t5v0__fillcap_8
XTAP_TAPCELL_ROW_19_123 VDD VSS gf180mcu_fd_sc_mcu7t5v0__filltie
XFILLER_23_142 VDD VDD VSS VSS gf180mcu_fd_sc_mcu7t5v0__fillcap_64
XTAP_TAPCELL_ROW_11_97 VDD VSS gf180mcu_fd_sc_mcu7t5v0__filltie
XTAP_TAPCELL_ROW_7_87 VDD VSS gf180mcu_fd_sc_mcu7t5v0__filltie