* NGSPICE file created from sar_adc_logic.ext - technology: gf180mcuD

* Black-box entry subcircuit for gf180mcu_fd_sc_mcu7t5v0__fillcap_16 abstract view
.subckt gf180mcu_fd_sc_mcu7t5v0__fillcap_16 VDD VNW VPW VSS
.ends

* Black-box entry subcircuit for gf180mcu_fd_sc_mcu7t5v0__fill_2 abstract view
.subckt gf180mcu_fd_sc_mcu7t5v0__fill_2 VDD VNW VPW VSS
.ends

* Black-box entry subcircuit for gf180mcu_fd_sc_mcu7t5v0__fillcap_4 abstract view
.subckt gf180mcu_fd_sc_mcu7t5v0__fillcap_4 VDD VNW VPW VSS
.ends

* Black-box entry subcircuit for gf180mcu_fd_sc_mcu7t5v0__filltie abstract view
.subckt gf180mcu_fd_sc_mcu7t5v0__filltie VDD VSS
.ends

* Black-box entry subcircuit for gf180mcu_fd_sc_mcu7t5v0__fill_1 abstract view
.subckt gf180mcu_fd_sc_mcu7t5v0__fill_1 VDD VNW VPW VSS
.ends

* Black-box entry subcircuit for gf180mcu_fd_sc_mcu7t5v0__endcap abstract view
.subckt gf180mcu_fd_sc_mcu7t5v0__endcap VDD VSS
.ends

* Black-box entry subcircuit for gf180mcu_fd_sc_mcu7t5v0__fillcap_8 abstract view
.subckt gf180mcu_fd_sc_mcu7t5v0__fillcap_8 VDD VNW VPW VSS
.ends

* Black-box entry subcircuit for gf180mcu_fd_sc_mcu7t5v0__aoi21_1 abstract view
.subckt gf180mcu_fd_sc_mcu7t5v0__aoi21_1 A1 A2 B ZN VDD VNW VPW VSS
.ends

* Black-box entry subcircuit for gf180mcu_fd_sc_mcu7t5v0__clkinv_1 abstract view
.subckt gf180mcu_fd_sc_mcu7t5v0__clkinv_1 I ZN VDD VNW VPW VSS
.ends

* Black-box entry subcircuit for gf180mcu_fd_sc_mcu7t5v0__fillcap_32 abstract view
.subckt gf180mcu_fd_sc_mcu7t5v0__fillcap_32 VDD VNW VPW VSS
.ends

* Black-box entry subcircuit for gf180mcu_fd_sc_mcu7t5v0__dlyc_1 abstract view
.subckt gf180mcu_fd_sc_mcu7t5v0__dlyc_1 I Z VDD VNW VPW VSS
.ends

* Black-box entry subcircuit for gf180mcu_fd_sc_mcu7t5v0__buf_8 abstract view
.subckt gf180mcu_fd_sc_mcu7t5v0__buf_8 I Z VDD VNW VPW VSS
.ends

* Black-box entry subcircuit for gf180mcu_fd_sc_mcu7t5v0__dlyd_1 abstract view
.subckt gf180mcu_fd_sc_mcu7t5v0__dlyd_1 I Z VDD VNW VPW VSS
.ends

* Black-box entry subcircuit for gf180mcu_fd_sc_mcu7t5v0__oai21_1 abstract view
.subckt gf180mcu_fd_sc_mcu7t5v0__oai21_1 A1 A2 B ZN VDD VNW VPW VSS
.ends

* Black-box entry subcircuit for gf180mcu_fd_sc_mcu7t5v0__fillcap_64 abstract view
.subckt gf180mcu_fd_sc_mcu7t5v0__fillcap_64 VDD VNW VPW VSS
.ends

* Black-box entry subcircuit for gf180mcu_fd_sc_mcu7t5v0__clkbuf_16 abstract view
.subckt gf180mcu_fd_sc_mcu7t5v0__clkbuf_16 I Z VDD VNW VPW VSS
.ends

* Black-box entry subcircuit for gf180mcu_fd_sc_mcu7t5v0__buf_1 abstract view
.subckt gf180mcu_fd_sc_mcu7t5v0__buf_1 I Z VDD VNW VPW VSS
.ends

* Black-box entry subcircuit for gf180mcu_fd_sc_mcu7t5v0__inv_2 abstract view
.subckt gf180mcu_fd_sc_mcu7t5v0__inv_2 I ZN VDD VNW VPW VSS
.ends

* Black-box entry subcircuit for gf180mcu_fd_sc_mcu7t5v0__buf_16 abstract view
.subckt gf180mcu_fd_sc_mcu7t5v0__buf_16 I Z VDD VNW VPW VSS
.ends

* Black-box entry subcircuit for gf180mcu_fd_sc_mcu7t5v0__dffrnq_1 abstract view
.subckt gf180mcu_fd_sc_mcu7t5v0__dffrnq_1 D RN CLK Q VDD VNW VPW VSS
.ends

* Black-box entry subcircuit for gf180mcu_fd_sc_mcu7t5v0__tiel abstract view
.subckt gf180mcu_fd_sc_mcu7t5v0__tiel ZN VDD VNW VPW VSS
.ends

* Black-box entry subcircuit for gf180mcu_fd_sc_mcu7t5v0__nor2_1 abstract view
.subckt gf180mcu_fd_sc_mcu7t5v0__nor2_1 A1 A2 ZN VDD VNW VPW VSS
.ends

* Black-box entry subcircuit for gf180mcu_fd_sc_mcu7t5v0__buf_2 abstract view
.subckt gf180mcu_fd_sc_mcu7t5v0__buf_2 I Z VDD VNW VPW VSS
.ends

* Black-box entry subcircuit for gf180mcu_fd_sc_mcu7t5v0__dffsnq_1 abstract view
.subckt gf180mcu_fd_sc_mcu7t5v0__dffsnq_1 D SETN CLK Q VDD VNW VPW VSS
.ends

* Black-box entry subcircuit for gf180mcu_fd_sc_mcu7t5v0__aoi21_2 abstract view
.subckt gf180mcu_fd_sc_mcu7t5v0__aoi21_2 A1 A2 B ZN VDD VNW VPW VSS
.ends

* Black-box entry subcircuit for gf180mcu_fd_sc_mcu7t5v0__dffrnq_4 abstract view
.subckt gf180mcu_fd_sc_mcu7t5v0__dffrnq_4 D RN CLK Q VDD VNW VPW VSS
.ends

* Black-box entry subcircuit for gf180mcu_fd_sc_mcu7t5v0__dffsnq_2 abstract view
.subckt gf180mcu_fd_sc_mcu7t5v0__dffsnq_2 D SETN CLK Q VDD VNW VPW VSS
.ends

* Black-box entry subcircuit for gf180mcu_fd_sc_mcu7t5v0__dffrnq_2 abstract view
.subckt gf180mcu_fd_sc_mcu7t5v0__dffrnq_2 D RN CLK Q VDD VNW VPW VSS
.ends

* Black-box entry subcircuit for gf180mcu_fd_sc_mcu7t5v0__mux2_2 abstract view
.subckt gf180mcu_fd_sc_mcu7t5v0__mux2_2 I0 I1 S Z VDD VNW VPW VSS
.ends

* Black-box entry subcircuit for gf180mcu_fd_sc_mcu7t5v0__xor2_4 abstract view
.subckt gf180mcu_fd_sc_mcu7t5v0__xor2_4 A1 A2 Z VDD VNW VPW VSS
.ends

* Black-box entry subcircuit for gf180mcu_fd_sc_mcu7t5v0__inv_1 abstract view
.subckt gf180mcu_fd_sc_mcu7t5v0__inv_1 I ZN VDD VNW VPW VSS
.ends

* Black-box entry subcircuit for gf180mcu_fd_sc_mcu7t5v0__nor3_4 abstract view
.subckt gf180mcu_fd_sc_mcu7t5v0__nor3_4 A1 A2 A3 ZN VDD VNW VPW VSS
.ends

* Black-box entry subcircuit for gf180mcu_fd_sc_mcu7t5v0__oai211_1 abstract view
.subckt gf180mcu_fd_sc_mcu7t5v0__oai211_1 A1 A2 B C ZN VDD VNW VPW VSS
.ends

* Black-box entry subcircuit for gf180mcu_fd_sc_mcu7t5v0__nand2_1 abstract view
.subckt gf180mcu_fd_sc_mcu7t5v0__nand2_1 A1 A2 ZN VDD VNW VPW VSS
.ends

.subckt sar_adc_logic VDD VSS clk_i clk_o dac_ctrl[0] dac_ctrl[1] dac_ctrl[2] dac_ctrl[3]
+ dac_ctrl[4] dac_ctrl[5] dac_ctrl[6] dac_ctrl[7] dout[0] dout[1] dout[2] dout[3]
+ dout[4] dout[5] dout[6] dout[7] out_n out_p rst_n
XFILLER_22_177 VDD VDD VSS VSS gf180mcu_fd_sc_mcu7t5v0__fillcap_16
XFILLER_9_137 VDD VDD VSS VSS gf180mcu_fd_sc_mcu7t5v0__fill_2
XFILLER_27_236 VDD VDD VSS VSS gf180mcu_fd_sc_mcu7t5v0__fillcap_4
XTAP_TAPCELL_ROW_8_88 VDD VSS gf180mcu_fd_sc_mcu7t5v0__filltie
XFILLER_6_107 VDD VDD VSS VSS gf180mcu_fd_sc_mcu7t5v0__fill_1
XFILLER_24_206 VDD VDD VSS VSS gf180mcu_fd_sc_mcu7t5v0__fill_1
XPHY_EDGE_ROW_20_Left_50 VDD VSS gf180mcu_fd_sc_mcu7t5v0__endcap
XFILLER_15_228 VDD VDD VSS VSS gf180mcu_fd_sc_mcu7t5v0__fillcap_8
X_062_ _064_/A1 _105_/Q _106_/Q _063_/B VDD VDD VSS VSS gf180mcu_fd_sc_mcu7t5v0__aoi21_1
XFILLER_21_209 VDD VDD VSS VSS gf180mcu_fd_sc_mcu7t5v0__fill_1
XFILLER_9_99 VDD VDD VSS VSS gf180mcu_fd_sc_mcu7t5v0__fill_2
XFILLER_9_88 VDD VDD VSS VSS gf180mcu_fd_sc_mcu7t5v0__fill_1
XFILLER_9_66 VDD VDD VSS VSS gf180mcu_fd_sc_mcu7t5v0__fillcap_4
XFILLER_18_53 VDD VDD VSS VSS gf180mcu_fd_sc_mcu7t5v0__fillcap_8
X_045_ _087_/Q _057_/A1 VDD VDD VSS VSS gf180mcu_fd_sc_mcu7t5v0__clkinv_1
XFILLER_28_183 VDD VDD VSS VSS gf180mcu_fd_sc_mcu7t5v0__fillcap_32
Xhold30 _083_/Q _097_/D VDD VDD VSS VSS gf180mcu_fd_sc_mcu7t5v0__dlyc_1
XFILLER_4_227 VDD VDD VSS VSS gf180mcu_fd_sc_mcu7t5v0__fillcap_8
Xrebuffer28 _108_/Q wire22/I VDD VDD VSS VSS gf180mcu_fd_sc_mcu7t5v0__buf_8
XFILLER_6_34 VDD VDD VSS VSS gf180mcu_fd_sc_mcu7t5v0__fill_1
XFILLER_15_98 VDD VDD VSS VSS gf180mcu_fd_sc_mcu7t5v0__fill_1
XFILLER_25_120 VDD VDD VSS VSS gf180mcu_fd_sc_mcu7t5v0__fill_1
XFILLER_16_197 VDD VDD VSS VSS gf180mcu_fd_sc_mcu7t5v0__fill_2
Xoutput7 _086_/Q dac_ctrl[3] VDD VDD VSS VSS gf180mcu_fd_sc_mcu7t5v0__dlyd_1
XFILLER_22_101 VDD VDD VSS VSS gf180mcu_fd_sc_mcu7t5v0__fillcap_4
XFILLER_22_123 VDD VDD VSS VSS gf180mcu_fd_sc_mcu7t5v0__fill_2
XFILLER_10_159 VDD VDD VSS VSS gf180mcu_fd_sc_mcu7t5v0__fillcap_4
XTAP_TAPCELL_ROW_8_89 VDD VSS gf180mcu_fd_sc_mcu7t5v0__filltie
XFILLER_23_240 VDD VDD VSS VSS gf180mcu_fd_sc_mcu7t5v0__fill_1
XPHY_EDGE_ROW_21_Right_21 VDD VSS gf180mcu_fd_sc_mcu7t5v0__endcap
XPHY_EDGE_ROW_12_Right_12 VDD VSS gf180mcu_fd_sc_mcu7t5v0__endcap
XFILLER_0_36 VDD VDD VSS VSS gf180mcu_fd_sc_mcu7t5v0__fillcap_32
XFILLER_14_240 VDD VDD VSS VSS gf180mcu_fd_sc_mcu7t5v0__fill_1
XFILLER_2_177 VDD VDD VSS VSS gf180mcu_fd_sc_mcu7t5v0__fillcap_16
X_061_ _061_/A1 _104_/Q _061_/B _085_/D VDD VDD VSS VSS gf180mcu_fd_sc_mcu7t5v0__oai21_1
XFILLER_3_2 VDD VDD VSS VSS gf180mcu_fd_sc_mcu7t5v0__fillcap_64
XFILLER_18_65 VDD VDD VSS VSS gf180mcu_fd_sc_mcu7t5v0__fill_1
X_044_ _088_/Q _055_/A1 VDD VDD VSS VSS gf180mcu_fd_sc_mcu7t5v0__clkinv_1
XTAP_TAPCELL_ROW_5_79 VDD VSS gf180mcu_fd_sc_mcu7t5v0__filltie
Xclkbuf_1_1__f_valid_clk_regs clkbuf_0_valid_clk_regs/Z _104_/CLK VDD VDD VSS VSS
+ gf180mcu_fd_sc_mcu7t5v0__clkbuf_16
Xhold31 _089_/Q _091_/D VDD VDD VSS VSS gf180mcu_fd_sc_mcu7t5v0__dlyc_1
XFILLER_4_239 VDD VDD VSS VSS gf180mcu_fd_sc_mcu7t5v0__fill_2
XFILLER_28_173 VDD VDD VSS VSS gf180mcu_fd_sc_mcu7t5v0__fill_2
XFILLER_15_66 VDD VDD VSS VSS gf180mcu_fd_sc_mcu7t5v0__fillcap_4
XPHY_EDGE_ROW_6_Right_6 VDD VSS gf180mcu_fd_sc_mcu7t5v0__endcap
Xoutput10 _083_/Q dac_ctrl[6] VDD VDD VSS VSS gf180mcu_fd_sc_mcu7t5v0__dlyd_1
Xoutput8 _085_/Q dac_ctrl[4] VDD VDD VSS VSS gf180mcu_fd_sc_mcu7t5v0__dlyd_1
XFILLER_9_139 VDD VDD VSS VSS gf180mcu_fd_sc_mcu7t5v0__fill_1
Xdly_stage\[31\].delay_buf dly_stage\[31\].delay_buf/I comp_trigger_driver/I VDD VDD
+ VSS VSS gf180mcu_fd_sc_mcu7t5v0__buf_1
XFILLER_12_34 VDD VDD VSS VSS gf180mcu_fd_sc_mcu7t5v0__fill_1
XFILLER_18_227 VDD VDD VSS VSS gf180mcu_fd_sc_mcu7t5v0__fillcap_8
XFILLER_23_66 VDD VDD VSS VSS gf180mcu_fd_sc_mcu7t5v0__fillcap_4
XFILLER_2_123 VDD VDD VSS VSS gf180mcu_fd_sc_mcu7t5v0__fillcap_4
X_060_ _064_/A1 _104_/Q _105_/Q _061_/B VDD VDD VSS VSS gf180mcu_fd_sc_mcu7t5v0__aoi21_1
XFILLER_29_2 VDD VDD VSS VSS gf180mcu_fd_sc_mcu7t5v0__fillcap_32
X_043_ _089_/Q _053_/A1 VDD VDD VSS VSS gf180mcu_fd_sc_mcu7t5v0__clkinv_1
XPHY_EDGE_ROW_8_Left_38 VDD VSS gf180mcu_fd_sc_mcu7t5v0__endcap
XFILLER_7_237 VDD VDD VSS VSS gf180mcu_fd_sc_mcu7t5v0__fillcap_4
XFILLER_20_34 VDD VDD VSS VSS gf180mcu_fd_sc_mcu7t5v0__fill_1
Xhold32 _084_/Q _096_/D VDD VDD VSS VSS gf180mcu_fd_sc_mcu7t5v0__dlyc_1
XFILLER_6_69 VDD VDD VSS VSS gf180mcu_fd_sc_mcu7t5v0__fill_2
XFILLER_15_89 VDD VDD VSS VSS gf180mcu_fd_sc_mcu7t5v0__fill_1
XFILLER_16_111 VDD VDD VSS VSS gf180mcu_fd_sc_mcu7t5v0__fill_2
Xdly_stage\[30\].delay_buf dly_stage\[30\].delay_buf/I dly_stage\[31\].delay_buf/I
+ VDD VDD VSS VSS gf180mcu_fd_sc_mcu7t5v0__buf_1
Xoutput11 _090_/Q dac_ctrl[7] VDD VDD VSS VSS gf180mcu_fd_sc_mcu7t5v0__dlyd_1
Xoutput9 _084_/Q dac_ctrl[5] VDD VDD VSS VSS gf180mcu_fd_sc_mcu7t5v0__dlyd_1
XFILLER_16_177 VDD VDD VSS VSS gf180mcu_fd_sc_mcu7t5v0__fillcap_16
XFILLER_16_199 VDD VDD VSS VSS gf180mcu_fd_sc_mcu7t5v0__fill_1
XFILLER_13_136 VDD VDD VSS VSS gf180mcu_fd_sc_mcu7t5v0__fillcap_4
XTAP_TAPCELL_ROW_15_109 VDD VSS gf180mcu_fd_sc_mcu7t5v0__filltie
XFILLER_12_57 VDD VDD VSS VSS gf180mcu_fd_sc_mcu7t5v0__fill_2
XFILLER_27_228 VDD VDD VSS VSS gf180mcu_fd_sc_mcu7t5v0__fillcap_8
XFILLER_18_239 VDD VDD VSS VSS gf180mcu_fd_sc_mcu7t5v0__fill_2
XPHY_EDGE_ROW_24_Left_54 VDD VSS gf180mcu_fd_sc_mcu7t5v0__endcap
X_042_ _107_/Q _108_/D VDD VDD VSS VSS gf180mcu_fd_sc_mcu7t5v0__clkinv_1
Xhold33 _085_/Q _095_/D VDD VDD VSS VSS gf180mcu_fd_sc_mcu7t5v0__dlyc_1
XFILLER_6_37 VDD VDD VSS VSS gf180mcu_fd_sc_mcu7t5v0__fillcap_32
XFILLER_19_142 VDD VDD VSS VSS gf180mcu_fd_sc_mcu7t5v0__fill_1
XFILLER_25_167 VDD VDD VSS VSS gf180mcu_fd_sc_mcu7t5v0__fill_1
XFILLER_25_178 VDD VDD VSS VSS gf180mcu_fd_sc_mcu7t5v0__fill_1
Xoutput12 _091_/Q dout[0] VDD VDD VSS VSS gf180mcu_fd_sc_mcu7t5v0__dlyd_1
XPHY_EDGE_ROW_11_Left_41 VDD VSS gf180mcu_fd_sc_mcu7t5v0__endcap
XFILLER_16_101 VDD VDD VSS VSS gf180mcu_fd_sc_mcu7t5v0__fillcap_4
XTAP_TAPCELL_ROW_18_118 VDD VSS gf180mcu_fd_sc_mcu7t5v0__filltie
XFILLER_26_34 VDD VDD VSS VSS gf180mcu_fd_sc_mcu7t5v0__fill_1
XFILLER_7_80 VDD VDD VSS VSS gf180mcu_fd_sc_mcu7t5v0__fillcap_4
XFILLER_10_107 VDD VDD VSS VSS gf180mcu_fd_sc_mcu7t5v0__fill_2
XTAP_TAPCELL_ROW_20_124 VDD VSS gf180mcu_fd_sc_mcu7t5v0__filltie
XFILLER_5_133 VDD VDD VSS VSS gf180mcu_fd_sc_mcu7t5v0__fill_2
XFILLER_5_122 VDD VDD VSS VSS gf180mcu_fd_sc_mcu7t5v0__fill_2
XTAP_TAPCELL_ROW_0_60 VDD VSS gf180mcu_fd_sc_mcu7t5v0__filltie
XFILLER_18_24 VDD VDD VSS VSS gf180mcu_fd_sc_mcu7t5v0__fill_2
XTAP_TAPCELL_ROW_9_91 VDD VSS gf180mcu_fd_sc_mcu7t5v0__filltie
XFILLER_1_2 VDD VDD VSS VSS gf180mcu_fd_sc_mcu7t5v0__fillcap_32
Xclkload0 _107_/CLK clkload0/ZN VDD VDD VSS VSS gf180mcu_fd_sc_mcu7t5v0__inv_2
Xhold34 _088_/Q _092_/D VDD VDD VSS VSS gf180mcu_fd_sc_mcu7t5v0__dlyc_1
Xcomp_trigger_driver comp_trigger_driver/I output3/I VDD VDD VSS VSS gf180mcu_fd_sc_mcu7t5v0__buf_16
Xoutput13 _092_/Q dout[1] VDD VDD VSS VSS gf180mcu_fd_sc_mcu7t5v0__dlyd_1
XFILLER_24_190 VDD VDD VSS VSS gf180mcu_fd_sc_mcu7t5v0__fillcap_16
XTAP_TAPCELL_ROW_18_119 VDD VSS gf180mcu_fd_sc_mcu7t5v0__filltie
XPHY_EDGE_ROW_28_Right_28 VDD VSS gf180mcu_fd_sc_mcu7t5v0__endcap
XPHY_EDGE_ROW_19_Right_19 VDD VSS gf180mcu_fd_sc_mcu7t5v0__endcap
XTAP_TAPCELL_ROW_23_133 VDD VSS gf180mcu_fd_sc_mcu7t5v0__filltie
XFILLER_12_37 VDD VDD VSS VSS gf180mcu_fd_sc_mcu7t5v0__fillcap_16
XTAP_TAPCELL_ROW_20_125 VDD VSS gf180mcu_fd_sc_mcu7t5v0__filltie
Xclkbuf_0_valid_clk valid_clk_xor/Z clkbuf_0_valid_clk/Z VDD VDD VSS VSS gf180mcu_fd_sc_mcu7t5v0__clkbuf_16
XTAP_TAPCELL_ROW_9_92 VDD VSS gf180mcu_fd_sc_mcu7t5v0__filltie
XTAP_TAPCELL_ROW_0_61 VDD VSS gf180mcu_fd_sc_mcu7t5v0__filltie
XFILLER_27_2 VDD VDD VSS VSS gf180mcu_fd_sc_mcu7t5v0__fillcap_64
XFILLER_20_37 VDD VDD VSS VSS gf180mcu_fd_sc_mcu7t5v0__fillcap_64
Xhold35 _087_/Q _093_/D VDD VDD VSS VSS gf180mcu_fd_sc_mcu7t5v0__dlyc_1
XTAP_TAPCELL_ROW_6_82 VDD VSS gf180mcu_fd_sc_mcu7t5v0__filltie
Xclkbuf_1_0__f_eoc clkbuf_0_eoc/Z comp_trigger_nor/A2 VDD VDD VSS VSS gf180mcu_fd_sc_mcu7t5v0__clkbuf_16
Xoutput14 _093_/Q dout[2] VDD VDD VSS VSS gf180mcu_fd_sc_mcu7t5v0__dlyd_1
XTAP_TAPCELL_ROW_26_142 VDD VSS gf180mcu_fd_sc_mcu7t5v0__filltie
XFILLER_7_93 VDD VDD VSS VSS gf180mcu_fd_sc_mcu7t5v0__fill_1
XTAP_TAPCELL_ROW_23_134 VDD VSS gf180mcu_fd_sc_mcu7t5v0__filltie
XFILLER_27_209 VDD VDD VSS VSS gf180mcu_fd_sc_mcu7t5v0__fill_1
XTAP_TAPCELL_ROW_20_126 VDD VSS gf180mcu_fd_sc_mcu7t5v0__filltie
XFILLER_5_135 VDD VDD VSS VSS gf180mcu_fd_sc_mcu7t5v0__fill_1
XFILLER_5_124 VDD VDD VSS VSS gf180mcu_fd_sc_mcu7t5v0__fill_1
XFILLER_23_212 VDD VDD VSS VSS gf180mcu_fd_sc_mcu7t5v0__fillcap_16
XFILLER_4_61 VDD VDD VSS VSS gf180mcu_fd_sc_mcu7t5v0__fill_1
XFILLER_2_127 VDD VDD VSS VSS gf180mcu_fd_sc_mcu7t5v0__fill_2
XTAP_TAPCELL_ROW_9_93 VDD VSS gf180mcu_fd_sc_mcu7t5v0__filltie
XTAP_TAPCELL_ROW_0_62 VDD VSS gf180mcu_fd_sc_mcu7t5v0__filltie
XFILLER_18_26 VDD VDD VSS VSS gf180mcu_fd_sc_mcu7t5v0__fill_1
XFILLER_18_37 VDD VDD VSS VSS gf180mcu_fd_sc_mcu7t5v0__fillcap_16
X_099_ _100_/Q _099_/RN _104_/CLK _099_/Q VDD VDD VSS VSS gf180mcu_fd_sc_mcu7t5v0__dffrnq_1
XPHY_EDGE_ROW_28_Left_58 VDD VSS gf180mcu_fd_sc_mcu7t5v0__endcap
XFILLER_28_101 VDD VDD VSS VSS gf180mcu_fd_sc_mcu7t5v0__fillcap_4
XFILLER_29_36 VDD VDD VSS VSS gf180mcu_fd_sc_mcu7t5v0__fillcap_32
Xhold36 _086_/Q _094_/D VDD VDD VSS VSS gf180mcu_fd_sc_mcu7t5v0__dlyc_1
XTAP_TAPCELL_ROW_29_151 VDD VSS gf180mcu_fd_sc_mcu7t5v0__filltie
XFILLER_25_104 VDD VDD VSS VSS gf180mcu_fd_sc_mcu7t5v0__fillcap_16
XTAP_TAPCELL_ROW_6_83 VDD VSS gf180mcu_fd_sc_mcu7t5v0__filltie
XFILLER_0_203 VDD VDD VSS VSS gf180mcu_fd_sc_mcu7t5v0__fill_1
XFILLER_24_181 VDD VDD VSS VSS gf180mcu_fd_sc_mcu7t5v0__fill_2
Xoutput15 _094_/Q dout[3] VDD VDD VSS VSS gf180mcu_fd_sc_mcu7t5v0__dlyd_1
XTAP_TAPCELL_ROW_26_143 VDD VSS gf180mcu_fd_sc_mcu7t5v0__filltie
XPHY_EDGE_ROW_1_Right_1 VDD VSS gf180mcu_fd_sc_mcu7t5v0__endcap
XFILLER_22_107 VDD VDD VSS VSS gf180mcu_fd_sc_mcu7t5v0__fillcap_16
XPHY_EDGE_ROW_15_Left_45 VDD VSS gf180mcu_fd_sc_mcu7t5v0__endcap
XFILLER_7_72 VDD VDD VSS VSS gf180mcu_fd_sc_mcu7t5v0__fillcap_8
XFILLER_26_37 VDD VDD VSS VSS gf180mcu_fd_sc_mcu7t5v0__fillcap_64
XTAP_TAPCELL_ROW_23_135 VDD VSS gf180mcu_fd_sc_mcu7t5v0__filltie
XFILLER_29_240 VDD VDD VSS VSS gf180mcu_fd_sc_mcu7t5v0__fill_1
XTAP_TAPCELL_ROW_3_73 VDD VSS gf180mcu_fd_sc_mcu7t5v0__filltie
XTAP_TAPCELL_ROW_0_63 VDD VSS gf180mcu_fd_sc_mcu7t5v0__filltie
XFILLER_11_238 VDD VDD VSS VSS gf180mcu_fd_sc_mcu7t5v0__fill_2
X_098_ _098_/D _050_/I _098_/CLK _098_/Q VDD VDD VSS VSS gf180mcu_fd_sc_mcu7t5v0__dffrnq_1
XPHY_EDGE_ROW_3_Left_33 VDD VSS gf180mcu_fd_sc_mcu7t5v0__endcap
XFILLER_10_61 VDD VDD VSS VSS gf180mcu_fd_sc_mcu7t5v0__fillcap_4
X_107__27 _107_/D VDD VDD VSS VSS gf180mcu_fd_sc_mcu7t5v0__tiel
Xhold37 _090_/Q _098_/D VDD VDD VSS VSS gf180mcu_fd_sc_mcu7t5v0__dlyc_1
XTAP_TAPCELL_ROW_10_94 VDD VSS gf180mcu_fd_sc_mcu7t5v0__filltie
XTAP_TAPCELL_ROW_6_84 VDD VSS gf180mcu_fd_sc_mcu7t5v0__filltie
XTAP_TAPCELL_ROW_29_152 VDD VSS gf180mcu_fd_sc_mcu7t5v0__filltie
XFILLER_16_149 VDD VDD VSS VSS gf180mcu_fd_sc_mcu7t5v0__fill_1
Xoutput16 _095_/Q dout[4] VDD VDD VSS VSS gf180mcu_fd_sc_mcu7t5v0__dlyd_1
XTAP_TAPCELL_ROW_26_144 VDD VSS gf180mcu_fd_sc_mcu7t5v0__filltie
XFILLER_21_152 VDD VDD VSS VSS gf180mcu_fd_sc_mcu7t5v0__fill_1
XPHY_EDGE_ROW_24_Right_24 VDD VSS gf180mcu_fd_sc_mcu7t5v0__endcap
XPHY_EDGE_ROW_15_Right_15 VDD VSS gf180mcu_fd_sc_mcu7t5v0__endcap
XFILLER_7_84 VDD VDD VSS VSS gf180mcu_fd_sc_mcu7t5v0__fill_2
XFILLER_12_185 VDD VDD VSS VSS gf180mcu_fd_sc_mcu7t5v0__fillcap_4
XTAP_TAPCELL_ROW_3_74 VDD VSS gf180mcu_fd_sc_mcu7t5v0__filltie
XFILLER_8_101 VDD VDD VSS VSS gf180mcu_fd_sc_mcu7t5v0__fillcap_4
XFILLER_23_236 VDD VDD VSS VSS gf180mcu_fd_sc_mcu7t5v0__fillcap_4
XFILLER_2_107 VDD VDD VSS VSS gf180mcu_fd_sc_mcu7t5v0__fillcap_16
XFILLER_2_129 VDD VDD VSS VSS gf180mcu_fd_sc_mcu7t5v0__fill_1
XFILLER_13_72 VDD VDD VSS VSS gf180mcu_fd_sc_mcu7t5v0__fillcap_64
XFILLER_14_236 VDD VDD VSS VSS gf180mcu_fd_sc_mcu7t5v0__fillcap_4
XTAP_TAPCELL_ROW_0_64 VDD VSS gf180mcu_fd_sc_mcu7t5v0__filltie
XFILLER_9_240 VDD VDD VSS VSS gf180mcu_fd_sc_mcu7t5v0__fill_1
X_097_ _097_/D _050_/I _098_/CLK _097_/Q VDD VDD VSS VSS gf180mcu_fd_sc_mcu7t5v0__dffrnq_1
XTAP_TAPCELL_ROW_10_95 VDD VSS gf180mcu_fd_sc_mcu7t5v0__filltie
XFILLER_3_202 VDD VDD VSS VSS gf180mcu_fd_sc_mcu7t5v0__fillcap_8
XTAP_TAPCELL_ROW_29_153 VDD VSS gf180mcu_fd_sc_mcu7t5v0__filltie
XFILLER_25_139 VDD VDD VSS VSS gf180mcu_fd_sc_mcu7t5v0__fill_1
XFILLER_25_2 VDD VDD VSS VSS gf180mcu_fd_sc_mcu7t5v0__fillcap_64
Xoutput17 _096_/Q dout[5] VDD VDD VSS VSS gf180mcu_fd_sc_mcu7t5v0__dlyd_1
XFILLER_21_72 VDD VDD VSS VSS gf180mcu_fd_sc_mcu7t5v0__fillcap_32
XFILLER_24_183 VDD VDD VSS VSS gf180mcu_fd_sc_mcu7t5v0__fill_1
XFILLER_16_61 VDD VDD VSS VSS gf180mcu_fd_sc_mcu7t5v0__fillcap_4
XFILLER_21_120 VDD VDD VSS VSS gf180mcu_fd_sc_mcu7t5v0__fillcap_8
XTAP_TAPCELL_ROW_3_75 VDD VSS gf180mcu_fd_sc_mcu7t5v0__filltie
XFILLER_4_53 VDD VDD VSS VSS gf180mcu_fd_sc_mcu7t5v0__fillcap_8
XTAP_TAPCELL_ROW_0_65 VDD VSS gf180mcu_fd_sc_mcu7t5v0__filltie
X_096_ _096_/D _050_/I _098_/CLK _096_/Q VDD VDD VSS VSS gf180mcu_fd_sc_mcu7t5v0__dffrnq_1
XTAP_TAPCELL_ROW_10_96 VDD VSS gf180mcu_fd_sc_mcu7t5v0__filltie
XFILLER_19_72 VDD VDD VSS VSS gf180mcu_fd_sc_mcu7t5v0__fillcap_4
XTAP_TAPCELL_ROW_29_154 VDD VSS gf180mcu_fd_sc_mcu7t5v0__filltie
XFILLER_0_206 VDD VDD VSS VSS gf180mcu_fd_sc_mcu7t5v0__fillcap_32
Xoutput18 _097_/Q dout[6] VDD VDD VSS VSS gf180mcu_fd_sc_mcu7t5v0__dlyd_1
X_079_ wire22/I _080_/A2 _104_/RN VDD VDD VSS VSS gf180mcu_fd_sc_mcu7t5v0__nor2_1
XFILLER_16_107 VDD VDD VSS VSS gf180mcu_fd_sc_mcu7t5v0__fillcap_4
XFILLER_15_162 VDD VDD VSS VSS gf180mcu_fd_sc_mcu7t5v0__fill_1
XFILLER_7_86 VDD VDD VSS VSS gf180mcu_fd_sc_mcu7t5v0__fill_1
XFILLER_21_132 VDD VDD VSS VSS gf180mcu_fd_sc_mcu7t5v0__fill_2
XPHY_EDGE_ROW_5_Right_5 VDD VSS gf180mcu_fd_sc_mcu7t5v0__endcap
XPHY_EDGE_ROW_19_Left_49 VDD VSS gf180mcu_fd_sc_mcu7t5v0__endcap
XFILLER_26_235 VDD VDD VSS VSS gf180mcu_fd_sc_mcu7t5v0__fillcap_4
XFILLER_27_72 VDD VDD VSS VSS gf180mcu_fd_sc_mcu7t5v0__fillcap_32
XTAP_TAPCELL_ROW_0_66 VDD VSS gf180mcu_fd_sc_mcu7t5v0__filltie
XFILLER_11_208 VDD VDD VSS VSS gf180mcu_fd_sc_mcu7t5v0__fill_2
X_095_ _095_/D _050_/I _098_/CLK _095_/Q VDD VDD VSS VSS gf180mcu_fd_sc_mcu7t5v0__dffrnq_1
XFILLER_10_53 VDD VDD VSS VSS gf180mcu_fd_sc_mcu7t5v0__fillcap_8
XFILLER_19_127 VDD VDD VSS VSS gf180mcu_fd_sc_mcu7t5v0__fill_1
XFILLER_27_193 VDD VDD VSS VSS gf180mcu_fd_sc_mcu7t5v0__fillcap_16
XTAP_TAPCELL_ROW_29_155 VDD VSS gf180mcu_fd_sc_mcu7t5v0__filltie
XPHY_EDGE_ROW_7_Left_37 VDD VSS gf180mcu_fd_sc_mcu7t5v0__endcap
XFILLER_3_237 VDD VDD VSS VSS gf180mcu_fd_sc_mcu7t5v0__fillcap_4
X_078_ wire22/Z _080_/A2 _103_/RN VDD VDD VSS VSS gf180mcu_fd_sc_mcu7t5v0__nor2_1
XFILLER_24_174 VDD VDD VSS VSS gf180mcu_fd_sc_mcu7t5v0__fill_1
Xoutput19 _098_/Q dout[7] VDD VDD VSS VSS gf180mcu_fd_sc_mcu7t5v0__dlyd_1
XFILLER_12_177 VDD VDD VSS VSS gf180mcu_fd_sc_mcu7t5v0__fillcap_8
XTAP_TAPCELL_ROW_14_106 VDD VSS gf180mcu_fd_sc_mcu7t5v0__filltie
XPHY_EDGE_ROW_20_Right_20 VDD VSS gf180mcu_fd_sc_mcu7t5v0__endcap
XPHY_EDGE_ROW_11_Right_11 VDD VSS gf180mcu_fd_sc_mcu7t5v0__endcap
XFILLER_23_228 VDD VDD VSS VSS gf180mcu_fd_sc_mcu7t5v0__fillcap_8
XFILLER_4_173 VDD VDD VSS VSS gf180mcu_fd_sc_mcu7t5v0__fill_2
XFILLER_8_2 VDD VDD VSS VSS gf180mcu_fd_sc_mcu7t5v0__fillcap_32
X_094_ _094_/D _050_/I _094_/CLK _094_/Q VDD VDD VSS VSS gf180mcu_fd_sc_mcu7t5v0__dffrnq_1
XFILLER_1_34 VDD VDD VSS VSS gf180mcu_fd_sc_mcu7t5v0__fill_2
XPHY_EDGE_ROW_23_Left_53 VDD VSS gf180mcu_fd_sc_mcu7t5v0__endcap
XTAP_TAPCELL_ROW_29_156 VDD VSS gf180mcu_fd_sc_mcu7t5v0__filltie
X_077_ wire22/Z _077_/A2 _102_/RN VDD VDD VSS VSS gf180mcu_fd_sc_mcu7t5v0__nor2_1
XFILLER_24_142 VDD VDD VSS VSS gf180mcu_fd_sc_mcu7t5v0__fillcap_32
XFILLER_15_142 VDD VDD VSS VSS gf180mcu_fd_sc_mcu7t5v0__fillcap_16
XFILLER_15_175 VDD VDD VSS VSS gf180mcu_fd_sc_mcu7t5v0__fill_1
XTAP_TAPCELL_ROW_17_115 VDD VSS gf180mcu_fd_sc_mcu7t5v0__filltie
XFILLER_7_66 VDD VDD VSS VSS gf180mcu_fd_sc_mcu7t5v0__fillcap_4
XFILLER_23_2 VDD VDD VSS VSS gf180mcu_fd_sc_mcu7t5v0__fillcap_64
XPHY_EDGE_ROW_10_Left_40 VDD VSS gf180mcu_fd_sc_mcu7t5v0__endcap
XFILLER_16_53 VDD VDD VSS VSS gf180mcu_fd_sc_mcu7t5v0__fillcap_8
XTAP_TAPCELL_ROW_14_107 VDD VSS gf180mcu_fd_sc_mcu7t5v0__filltie
XFILLER_17_204 VDD VDD VSS VSS gf180mcu_fd_sc_mcu7t5v0__fillcap_4
XFILLER_17_237 VDD VDD VSS VSS gf180mcu_fd_sc_mcu7t5v0__fillcap_4
XFILLER_4_34 VDD VDD VSS VSS gf180mcu_fd_sc_mcu7t5v0__fill_1
XFILLER_4_130 VDD VDD VSS VSS gf180mcu_fd_sc_mcu7t5v0__fill_1
XFILLER_13_240 VDD VDD VSS VSS gf180mcu_fd_sc_mcu7t5v0__fill_1
X_093_ _093_/D _050_/I _094_/CLK _093_/Q VDD VDD VSS VSS gf180mcu_fd_sc_mcu7t5v0__dffrnq_1
XFILLER_6_203 VDD VDD VSS VSS gf180mcu_fd_sc_mcu7t5v0__fillcap_4
XFILLER_28_107 VDD VDD VSS VSS gf180mcu_fd_sc_mcu7t5v0__fillcap_32
Xinput1 out_n input1/Z VDD VDD VSS VSS gf180mcu_fd_sc_mcu7t5v0__dlyd_1
Xclkbuf_0_valid_clk_regs clkbuf_regs_0_valid_clk/Z clkbuf_0_valid_clk_regs/Z VDD VDD
+ VSS VSS gf180mcu_fd_sc_mcu7t5v0__clkbuf_16
X_076_ wire22/Z _077_/A2 _101_/RN VDD VDD VSS VSS gf180mcu_fd_sc_mcu7t5v0__nor2_1
XTAP_TAPCELL_ROW_29_157 VDD VSS gf180mcu_fd_sc_mcu7t5v0__filltie
XFILLER_18_173 VDD VDD VSS VSS gf180mcu_fd_sc_mcu7t5v0__fill_2
XTAP_TAPCELL_ROW_17_116 VDD VSS gf180mcu_fd_sc_mcu7t5v0__filltie
XFILLER_16_2 VDD VDD VSS VSS gf180mcu_fd_sc_mcu7t5v0__fillcap_32
X_059_ _059_/A1 _103_/Q _059_/B _086_/D VDD VDD VSS VSS gf180mcu_fd_sc_mcu7t5v0__oai21_1
XTAP_TAPCELL_ROW_22_130 VDD VSS gf180mcu_fd_sc_mcu7t5v0__filltie
XTAP_TAPCELL_ROW_14_108 VDD VSS gf180mcu_fd_sc_mcu7t5v0__filltie
XPHY_EDGE_ROW_9_Right_9 VDD VSS gf180mcu_fd_sc_mcu7t5v0__endcap
XFILLER_26_227 VDD VDD VSS VSS gf180mcu_fd_sc_mcu7t5v0__fillcap_8
XFILLER_23_208 VDD VDD VSS VSS gf180mcu_fd_sc_mcu7t5v0__fill_2
XFILLER_13_66 VDD VDD VSS VSS gf180mcu_fd_sc_mcu7t5v0__fillcap_4
XFILLER_9_212 VDD VDD VSS VSS gf180mcu_fd_sc_mcu7t5v0__fillcap_16
Xclkbuf_0_eoc_regs clkbuf_0_eoc_regs/I clkbuf_0_eoc_regs/Z VDD VDD VSS VSS gf180mcu_fd_sc_mcu7t5v0__clkbuf_16
X_092_ _092_/D _050_/I _094_/CLK _092_/Q VDD VDD VSS VSS gf180mcu_fd_sc_mcu7t5v0__dffrnq_1
XFILLER_10_34 VDD VDD VSS VSS gf180mcu_fd_sc_mcu7t5v0__fill_1
Xinput2 out_p wire26/I VDD VDD VSS VSS gf180mcu_fd_sc_mcu7t5v0__buf_1
XFILLER_19_119 VDD VDD VSS VSS gf180mcu_fd_sc_mcu7t5v0__fillcap_8
XFILLER_19_76 VDD VDD VSS VSS gf180mcu_fd_sc_mcu7t5v0__fill_2
XFILLER_19_87 VDD VDD VSS VSS gf180mcu_fd_sc_mcu7t5v0__fillcap_32
XFILLER_27_152 VDD VDD VSS VSS gf180mcu_fd_sc_mcu7t5v0__fill_1
X_075_ _108_/Q _077_/A2 _100_/RN VDD VDD VSS VSS gf180mcu_fd_sc_mcu7t5v0__nor2_1
XFILLER_21_66 VDD VDD VSS VSS gf180mcu_fd_sc_mcu7t5v0__fillcap_4
XFILLER_24_177 VDD VDD VSS VSS gf180mcu_fd_sc_mcu7t5v0__fillcap_4
Xmax_cap20 _080_/A2 _082_/A2 VDD VDD VSS VSS gf180mcu_fd_sc_mcu7t5v0__buf_2
XTAP_TAPCELL_ROW_17_117 VDD VSS gf180mcu_fd_sc_mcu7t5v0__filltie
X_058_ wire26/Z _103_/Q _104_/Q _059_/B VDD VDD VSS VSS gf180mcu_fd_sc_mcu7t5v0__aoi21_1
XFILLER_12_103 VDD VDD VSS VSS gf180mcu_fd_sc_mcu7t5v0__fill_2
XTAP_TAPCELL_ROW_22_131 VDD VSS gf180mcu_fd_sc_mcu7t5v0__filltie
XFILLER_8_107 VDD VDD VSS VSS gf180mcu_fd_sc_mcu7t5v0__fill_1
XFILLER_26_239 VDD VDD VSS VSS gf180mcu_fd_sc_mcu7t5v0__fill_2
XFILLER_4_165 VDD VDD VSS VSS gf180mcu_fd_sc_mcu7t5v0__fillcap_8
X_091_ _091_/D _050_/I _094_/CLK _091_/Q VDD VDD VSS VSS gf180mcu_fd_sc_mcu7t5v0__dffrnq_1
XFILLER_6_2 VDD VDD VSS VSS gf180mcu_fd_sc_mcu7t5v0__fillcap_32
XPHY_EDGE_ROW_27_Right_27 VDD VSS gf180mcu_fd_sc_mcu7t5v0__endcap
XPHY_EDGE_ROW_18_Right_18 VDD VSS gf180mcu_fd_sc_mcu7t5v0__endcap
XFILLER_27_120 VDD VDD VSS VSS gf180mcu_fd_sc_mcu7t5v0__fillcap_8
X_074_ _108_/Q _077_/A2 _099_/RN VDD VDD VSS VSS gf180mcu_fd_sc_mcu7t5v0__nor2_1
XPHY_EDGE_ROW_27_Left_57 VDD VSS gf180mcu_fd_sc_mcu7t5v0__endcap
XFILLER_24_101 VDD VDD VSS VSS gf180mcu_fd_sc_mcu7t5v0__fillcap_4
XFILLER_24_123 VDD VDD VSS VSS gf180mcu_fd_sc_mcu7t5v0__fillcap_4
Xclkbuf_1_0__f_valid_clk clkbuf_0_valid_clk/Z comp_trigger_nor/A1 VDD VDD VSS VSS
+ gf180mcu_fd_sc_mcu7t5v0__clkbuf_16
Xmax_cap21 _080_/A2 _077_/A2 VDD VDD VSS VSS gf180mcu_fd_sc_mcu7t5v0__buf_2
X_057_ _057_/A1 _102_/Q _057_/B _087_/D VDD VDD VSS VSS gf180mcu_fd_sc_mcu7t5v0__oai21_1
XTAP_TAPCELL_ROW_25_140 VDD VSS gf180mcu_fd_sc_mcu7t5v0__filltie
XFILLER_16_34 VDD VDD VSS VSS gf180mcu_fd_sc_mcu7t5v0__fill_1
XFILLER_21_104 VDD VDD VSS VSS gf180mcu_fd_sc_mcu7t5v0__fillcap_16
XFILLER_21_148 VDD VDD VSS VSS gf180mcu_fd_sc_mcu7t5v0__fillcap_4
XFILLER_12_159 VDD VDD VSS VSS gf180mcu_fd_sc_mcu7t5v0__fillcap_16
XTAP_TAPCELL_ROW_22_132 VDD VSS gf180mcu_fd_sc_mcu7t5v0__filltie
XPHY_EDGE_ROW_0_Right_0 VDD VSS gf180mcu_fd_sc_mcu7t5v0__endcap
XFILLER_21_2 VDD VDD VSS VSS gf180mcu_fd_sc_mcu7t5v0__fillcap_64
XPHY_EDGE_ROW_14_Left_44 VDD VSS gf180mcu_fd_sc_mcu7t5v0__endcap
XFILLER_25_240 VDD VDD VSS VSS gf180mcu_fd_sc_mcu7t5v0__fill_1
XFILLER_27_66 VDD VDD VSS VSS gf180mcu_fd_sc_mcu7t5v0__fillcap_4
XFILLER_16_240 VDD VDD VSS VSS gf180mcu_fd_sc_mcu7t5v0__fill_1
XFILLER_4_37 VDD VDD VSS VSS gf180mcu_fd_sc_mcu7t5v0__fillcap_16
XFILLER_4_100 VDD VDD VSS VSS gf180mcu_fd_sc_mcu7t5v0__fillcap_4
XFILLER_9_236 VDD VDD VSS VSS gf180mcu_fd_sc_mcu7t5v0__fillcap_4
XFILLER_5_80 VDD VDD VSS VSS gf180mcu_fd_sc_mcu7t5v0__fillcap_4
XFILLER_10_235 VDD VDD VSS VSS gf180mcu_fd_sc_mcu7t5v0__fillcap_4
XFILLER_24_34 VDD VDD VSS VSS gf180mcu_fd_sc_mcu7t5v0__fill_1
X_090_ _090_/D _073_/ZN _107_/CLK _090_/Q VDD VDD VSS VSS gf180mcu_fd_sc_mcu7t5v0__dffsnq_1
XFILLER_19_78 VDD VDD VSS VSS gf180mcu_fd_sc_mcu7t5v0__fill_1
XFILLER_18_8 VDD VDD VSS VSS gf180mcu_fd_sc_mcu7t5v0__fillcap_16
X_073_ wire22/Z _082_/A2 _073_/ZN VDD VDD VSS VSS gf180mcu_fd_sc_mcu7t5v0__nor2_1
XPHY_EDGE_ROW_2_Left_32 VDD VSS gf180mcu_fd_sc_mcu7t5v0__endcap
X_056_ wire26/Z _102_/Q _103_/Q _057_/B VDD VDD VSS VSS gf180mcu_fd_sc_mcu7t5v0__aoi21_2
XTAP_TAPCELL_ROW_25_141 VDD VSS gf180mcu_fd_sc_mcu7t5v0__filltie
XFILLER_14_2 VDD VDD VSS VSS gf180mcu_fd_sc_mcu7t5v0__fillcap_32
X_108_ _108_/D _050_/I clk_i _108_/Q VDD VDD VSS VSS gf180mcu_fd_sc_mcu7t5v0__dffrnq_4
XFILLER_17_208 VDD VDD VSS VSS gf180mcu_fd_sc_mcu7t5v0__fill_2
XFILLER_14_90 VDD VDD VSS VSS gf180mcu_fd_sc_mcu7t5v0__fillcap_8
XFILLER_5_240 VDD VDD VSS VSS gf180mcu_fd_sc_mcu7t5v0__fill_1
XFILLER_10_37 VDD VDD VSS VSS gf180mcu_fd_sc_mcu7t5v0__fillcap_16
XFILLER_19_68 VDD VDD VSS VSS gf180mcu_fd_sc_mcu7t5v0__fill_2
X_072_ _108_/Q _077_/A2 _089_/RN VDD VDD VSS VSS gf180mcu_fd_sc_mcu7t5v0__nor2_1
XTAP_TAPCELL_ROW_28_150 VDD VSS gf180mcu_fd_sc_mcu7t5v0__filltie
XFILLER_15_158 VDD VDD VSS VSS gf180mcu_fd_sc_mcu7t5v0__fillcap_4
Xdly_stage\[19\].delay_buf dly_stage\[19\].delay_buf/I dly_stage\[20\].delay_buf/I
+ VDD VDD VSS VSS gf180mcu_fd_sc_mcu7t5v0__buf_1
X_055_ _055_/A1 _101_/Q _055_/B _088_/D VDD VDD VSS VSS gf180mcu_fd_sc_mcu7t5v0__oai21_1
XFILLER_11_80 VDD VDD VSS VSS gf180mcu_fd_sc_mcu7t5v0__fillcap_4
XFILLER_21_128 VDD VDD VSS VSS gf180mcu_fd_sc_mcu7t5v0__fillcap_4
XFILLER_29_206 VDD VDD VSS VSS gf180mcu_fd_sc_mcu7t5v0__fillcap_32
X_107_ _107_/D _082_/ZN _107_/CLK _107_/Q VDD VDD VSS VSS gf180mcu_fd_sc_mcu7t5v0__dffsnq_2
XFILLER_4_124 VDD VDD VSS VSS gf180mcu_fd_sc_mcu7t5v0__fill_1
XFILLER_22_201 VDD VDD VSS VSS gf180mcu_fd_sc_mcu7t5v0__fillcap_4
XFILLER_13_212 VDD VDD VSS VSS gf180mcu_fd_sc_mcu7t5v0__fillcap_16
XFILLER_19_36 VDD VDD VSS VSS gf180mcu_fd_sc_mcu7t5v0__fillcap_32
XFILLER_2_233 VDD VDD VSS VSS gf180mcu_fd_sc_mcu7t5v0__fillcap_8
Xdly_stage\[18\].delay_buf dly_stage\[18\].delay_buf/I dly_stage\[19\].delay_buf/I
+ VDD VDD VSS VSS gf180mcu_fd_sc_mcu7t5v0__buf_1
X_071_ _108_/Q _077_/A2 _088_/RN VDD VDD VSS VSS gf180mcu_fd_sc_mcu7t5v0__nor2_1
XPHY_EDGE_ROW_23_Right_23 VDD VSS gf180mcu_fd_sc_mcu7t5v0__endcap
XPHY_EDGE_ROW_14_Right_14 VDD VSS gf180mcu_fd_sc_mcu7t5v0__endcap
XFILLER_4_2 VDD VDD VSS VSS gf180mcu_fd_sc_mcu7t5v0__fillcap_32
XFILLER_15_137 VDD VDD VSS VSS gf180mcu_fd_sc_mcu7t5v0__fill_2
XFILLER_23_192 VDD VDD VSS VSS gf180mcu_fd_sc_mcu7t5v0__fillcap_16
X_054_ _064_/A1 _101_/Q _102_/Q _055_/B VDD VDD VSS VSS gf180mcu_fd_sc_mcu7t5v0__aoi21_1
XFILLER_12_107 VDD VDD VSS VSS gf180mcu_fd_sc_mcu7t5v0__fill_2
XFILLER_16_37 VDD VDD VSS VSS gf180mcu_fd_sc_mcu7t5v0__fillcap_16
XFILLER_20_173 VDD VDD VSS VSS gf180mcu_fd_sc_mcu7t5v0__fill_2
X_106_ _107_/Q _106_/RN _107_/CLK _106_/Q VDD VDD VSS VSS gf180mcu_fd_sc_mcu7t5v0__dffrnq_2
XFILLER_19_240 VDD VDD VSS VSS gf180mcu_fd_sc_mcu7t5v0__fill_1
XPHY_EDGE_ROW_4_Right_4 VDD VSS gf180mcu_fd_sc_mcu7t5v0__endcap
XPHY_EDGE_ROW_18_Left_48 VDD VSS gf180mcu_fd_sc_mcu7t5v0__endcap
XFILLER_0_172 VDD VDD VSS VSS gf180mcu_fd_sc_mcu7t5v0__fillcap_4
XFILLER_9_228 VDD VDD VSS VSS gf180mcu_fd_sc_mcu7t5v0__fillcap_8
XFILLER_10_227 VDD VDD VSS VSS gf180mcu_fd_sc_mcu7t5v0__fillcap_8
XFILLER_24_37 VDD VDD VSS VSS gf180mcu_fd_sc_mcu7t5v0__fillcap_64
Xdly_stage\[17\].delay_buf dly_stage\[17\].delay_buf/I dly_stage\[18\].delay_buf/I